<routes>
    <vType id="emergency" accel="3.0" decel="6.0" color="1,0,0" maxSpeed="20" sigma="0.5" emergency="true"/>
    <vType id="standard_car" accel="1.0" decel="4.5" length="5.0" minGap="2.5" maxSpeed="25" sigma="0.5"/>

    <route id="left1_mid1" edges="left1 mid1"/>
    <route id="right2_mid2" edges="right2 mid2"/>
    <route id="top_mid1" edges="top mid1"/>
    <route id="bottom_mid2" edges="bottom mid2"/>
    <route id="left1_top_r" edges="left1 top_r"/>
    <route id="right2_bottom_r" edges="right2 bottom_r"/>
    <route id="left2_left1_mid1" edges="left2 left1 mid1"/>
    <route id="right1_right2_mid2" edges="right1 right2 mid2"/>
    <vehicle id="right1_right2_mid2_0" type="standard_car" route="right1_right2_mid2" depart="12" departLane="random" departSpeed="10" />
    <vehicle id="emergency_0" type="emergency" route="right2_bottom_r" depart="15" departLane="random" departSpeed="10" />
    <vehicle id="emergency_1" type="emergency" route="bottom_mid2" depart="28" departLane="random" departSpeed="10" />
    <vehicle id="right2_bottom_r_1" type="standard_car" route="right2_bottom_r" depart="34" departLane="random" departSpeed="10" />
    <vehicle id="emergency_2" type="emergency" route="bottom_mid2" depart="38" departLane="random" departSpeed="10" />
    <vehicle id="emergency_3" type="emergency" route="top_mid1" depart="40" departLane="random" departSpeed="10" />
    <vehicle id="right2_mid2_2" type="standard_car" route="right2_mid2" depart="52" departLane="random" departSpeed="10" />
    <vehicle id="left1_top_r_3" type="standard_car" route="left1_top_r" depart="65" departLane="random" departSpeed="10" />
    <vehicle id="left2_left1_mid1_4" type="standard_car" route="left2_left1_mid1" depart="74" departLane="random" departSpeed="10" />
    <vehicle id="left1_mid1_5" type="standard_car" route="left1_mid1" depart="77" departLane="random" departSpeed="10" />
    <vehicle id="bottom_mid2_6" type="standard_car" route="bottom_mid2" depart="90" departLane="random" departSpeed="10" />
    <vehicle id="top_mid1_7" type="standard_car" route="top_mid1" depart="91" departLane="random" departSpeed="10" />
    <vehicle id="right2_bottom_r_8" type="standard_car" route="right2_bottom_r" depart="96" departLane="random" departSpeed="10" />
    <vehicle id="left1_top_r_9" type="standard_car" route="left1_top_r" depart="97" departLane="random" departSpeed="10" />
    <vehicle id="left1_mid1_10" type="standard_car" route="left1_mid1" depart="98" departLane="random" departSpeed="10" />
    <vehicle id="bottom_mid2_11" type="standard_car" route="bottom_mid2" depart="99" departLane="random" departSpeed="10" />
    <vehicle id="left2_left1_mid1_12" type="standard_car" route="left2_left1_mid1" depart="101" departLane="random" departSpeed="10" />
    <vehicle id="left1_mid1_13" type="standard_car" route="left1_mid1" depart="101" departLane="random" departSpeed="10" />
    <vehicle id="emergency_4" type="emergency" route="right2_mid2" depart="102" departLane="random" departSpeed="10" />
    <vehicle id="left1_mid1_14" type="standard_car" route="left1_mid1" depart="103" departLane="random" departSpeed="10" />
    <vehicle id="left1_top_r_15" type="standard_car" route="left1_top_r" depart="105" departLane="random" departSpeed="10" />
    <vehicle id="emergency_5" type="emergency" route="left1_top_r" depart="105" departLane="random" departSpeed="10" />
    <vehicle id="right2_mid2_16" type="standard_car" route="right2_mid2" depart="108" departLane="random" departSpeed="10" />
    <vehicle id="emergency_6" type="emergency" route="left1_mid1" depart="113" departLane="random" departSpeed="10" />
    <vehicle id="left1_top_r_17" type="standard_car" route="left1_top_r" depart="123" departLane="random" departSpeed="10" />
    <vehicle id="right2_mid2_18" type="standard_car" route="right2_mid2" depart="125" departLane="random" departSpeed="10" />
    <vehicle id="right2_mid2_19" type="standard_car" route="right2_mid2" depart="126" departLane="random" departSpeed="10" />
    <vehicle id="left2_left1_mid1_20" type="standard_car" route="left2_left1_mid1" depart="127" departLane="random" departSpeed="10" />
    <vehicle id="right2_mid2_21" type="standard_car" route="right2_mid2" depart="129" departLane="random" departSpeed="10" />
    <vehicle id="left1_mid1_22" type="standard_car" route="left1_mid1" depart="130" departLane="random" departSpeed="10" />
    <vehicle id="left1_mid1_23" type="standard_car" route="left1_mid1" depart="134" departLane="random" departSpeed="10" />
    <vehicle id="left2_left1_mid1_24" type="standard_car" route="left2_left1_mid1" depart="136" departLane="random" departSpeed="10" />
    <vehicle id="left1_top_r_25" type="standard_car" route="left1_top_r" depart="139" departLane="random" departSpeed="10" />
    <vehicle id="left1_mid1_26" type="standard_car" route="left1_mid1" depart="140" departLane="random" departSpeed="10" />
    <vehicle id="left2_left1_mid1_27" type="standard_car" route="left2_left1_mid1" depart="148" departLane="random" departSpeed="10" />
    <vehicle id="left1_mid1_28" type="standard_car" route="left1_mid1" depart="154" departLane="random" departSpeed="10" />
    <vehicle id="right2_mid2_29" type="standard_car" route="right2_mid2" depart="155" departLane="random" departSpeed="10" />
    <vehicle id="left2_left1_mid1_30" type="standard_car" route="left2_left1_mid1" depart="156" departLane="random" departSpeed="10" />
    <vehicle id="top_mid1_31" type="standard_car" route="top_mid1" depart="160" departLane="random" departSpeed="10" />
    <vehicle id="bottom_mid2_32" type="standard_car" route="bottom_mid2" depart="163" departLane="random" departSpeed="10" />
    <vehicle id="left1_top_r_33" type="standard_car" route="left1_top_r" depart="163" departLane="random" departSpeed="10" />
    <vehicle id="left2_left1_mid1_34" type="standard_car" route="left2_left1_mid1" depart="165" departLane="random" departSpeed="10" />
    <vehicle id="left1_mid1_35" type="standard_car" route="left1_mid1" depart="166" departLane="random" departSpeed="10" />
    <vehicle id="top_mid1_36" type="standard_car" route="top_mid1" depart="169" departLane="random" departSpeed="10" />
    <vehicle id="bottom_mid2_37" type="standard_car" route="bottom_mid2" depart="169" departLane="random" departSpeed="10" />
    <vehicle id="left2_left1_mid1_38" type="standard_car" route="left2_left1_mid1" depart="171" departLane="random" departSpeed="10" />
    <vehicle id="right2_mid2_39" type="standard_car" route="right2_mid2" depart="174" departLane="random" departSpeed="10" />
    <vehicle id="bottom_mid2_40" type="standard_car" route="bottom_mid2" depart="174" departLane="random" departSpeed="10" />
    <vehicle id="top_mid1_41" type="standard_car" route="top_mid1" depart="175" departLane="random" departSpeed="10" />
    <vehicle id="top_mid1_42" type="standard_car" route="top_mid1" depart="180" departLane="random" departSpeed="10" />
    <vehicle id="right2_bottom_r_43" type="standard_car" route="right2_bottom_r" depart="181" departLane="random" departSpeed="10" />
    <vehicle id="emergency_7" type="emergency" route="left1_mid1" depart="181" departLane="random" departSpeed="10" />
    <vehicle id="left2_left1_mid1_44" type="standard_car" route="left2_left1_mid1" depart="182" departLane="random" departSpeed="10" />
    <vehicle id="left2_left1_mid1_45" type="standard_car" route="left2_left1_mid1" depart="185" departLane="random" departSpeed="10" />
    <vehicle id="right1_right2_mid2_46" type="standard_car" route="right1_right2_mid2" depart="189" departLane="random" departSpeed="10" />
    <vehicle id="right2_mid2_47" type="standard_car" route="right2_mid2" depart="190" departLane="random" departSpeed="10" />
    <vehicle id="right2_mid2_48" type="standard_car" route="right2_mid2" depart="190" departLane="random" departSpeed="10" />
    <vehicle id="right2_bottom_r_49" type="standard_car" route="right2_bottom_r" depart="198" departLane="random" departSpeed="10" />
    <vehicle id="left1_top_r_50" type="standard_car" route="left1_top_r" depart="208" departLane="random" departSpeed="10" />
    <vehicle id="left1_top_r_51" type="standard_car" route="left1_top_r" depart="211" departLane="random" departSpeed="10" />
    <vehicle id="left2_left1_mid1_52" type="standard_car" route="left2_left1_mid1" depart="213" departLane="random" departSpeed="10" />
    <vehicle id="bottom_mid2_53" type="standard_car" route="bottom_mid2" depart="217" departLane="random" departSpeed="10" />
    <vehicle id="bottom_mid2_54" type="standard_car" route="bottom_mid2" depart="219" departLane="random" departSpeed="10" />
    <vehicle id="left1_mid1_55" type="standard_car" route="left1_mid1" depart="220" departLane="random" departSpeed="10" />
    <vehicle id="right2_bottom_r_56" type="standard_car" route="right2_bottom_r" depart="221" departLane="random" departSpeed="10" />
    <vehicle id="right1_right2_mid2_57" type="standard_car" route="right1_right2_mid2" depart="223" departLane="random" departSpeed="10" />
    <vehicle id="left1_mid1_58" type="standard_car" route="left1_mid1" depart="223" departLane="random" departSpeed="10" />
    <vehicle id="top_mid1_59" type="standard_car" route="top_mid1" depart="224" departLane="random" departSpeed="10" />
    <vehicle id="top_mid1_60" type="standard_car" route="top_mid1" depart="225" departLane="random" departSpeed="10" />
    <vehicle id="top_mid1_61" type="standard_car" route="top_mid1" depart="225" departLane="random" departSpeed="10" />
    <vehicle id="left2_left1_mid1_62" type="standard_car" route="left2_left1_mid1" depart="225" departLane="random" departSpeed="10" />
    <vehicle id="left1_top_r_63" type="standard_car" route="left1_top_r" depart="229" departLane="random" departSpeed="10" />
    <vehicle id="right1_right2_mid2_64" type="standard_car" route="right1_right2_mid2" depart="234" departLane="random" departSpeed="10" />
    <vehicle id="left1_mid1_65" type="standard_car" route="left1_mid1" depart="234" departLane="random" departSpeed="10" />
    <vehicle id="right1_right2_mid2_66" type="standard_car" route="right1_right2_mid2" depart="236" departLane="random" departSpeed="10" />
    <vehicle id="left2_left1_mid1_67" type="standard_car" route="left2_left1_mid1" depart="240" departLane="random" departSpeed="10" />
    <vehicle id="right2_mid2_68" type="standard_car" route="right2_mid2" depart="241" departLane="random" departSpeed="10" />
    <vehicle id="bottom_mid2_69" type="standard_car" route="bottom_mid2" depart="241" departLane="random" departSpeed="10" />
    <vehicle id="right1_right2_mid2_70" type="standard_car" route="right1_right2_mid2" depart="242" departLane="random" departSpeed="10" />
    <vehicle id="top_mid1_71" type="standard_car" route="top_mid1" depart="243" departLane="random" departSpeed="10" />
    <vehicle id="right2_mid2_72" type="standard_car" route="right2_mid2" depart="246" departLane="random" departSpeed="10" />
    <vehicle id="right2_mid2_73" type="standard_car" route="right2_mid2" depart="247" departLane="random" departSpeed="10" />
    <vehicle id="left2_left1_mid1_74" type="standard_car" route="left2_left1_mid1" depart="252" departLane="random" departSpeed="10" />
    <vehicle id="left2_left1_mid1_75" type="standard_car" route="left2_left1_mid1" depart="255" departLane="random" departSpeed="10" />
    <vehicle id="top_mid1_76" type="standard_car" route="top_mid1" depart="256" departLane="random" departSpeed="10" />
    <vehicle id="right2_mid2_77" type="standard_car" route="right2_mid2" depart="256" departLane="random" departSpeed="10" />
    <vehicle id="left1_mid1_78" type="standard_car" route="left1_mid1" depart="261" departLane="random" departSpeed="10" />
    <vehicle id="right1_right2_mid2_79" type="standard_car" route="right1_right2_mid2" depart="262" departLane="random" departSpeed="10" />
    <vehicle id="bottom_mid2_80" type="standard_car" route="bottom_mid2" depart="263" departLane="random" departSpeed="10" />
    <vehicle id="left1_top_r_81" type="standard_car" route="left1_top_r" depart="263" departLane="random" departSpeed="10" />
    <vehicle id="left1_mid1_82" type="standard_car" route="left1_mid1" depart="263" departLane="random" departSpeed="10" />
    <vehicle id="top_mid1_83" type="standard_car" route="top_mid1" depart="273" departLane="random" departSpeed="10" />
    <vehicle id="left2_left1_mid1_84" type="standard_car" route="left2_left1_mid1" depart="274" departLane="random" departSpeed="10" />
    <vehicle id="bottom_mid2_85" type="standard_car" route="bottom_mid2" depart="275" departLane="random" departSpeed="10" />
    <vehicle id="left2_left1_mid1_86" type="standard_car" route="left2_left1_mid1" depart="279" departLane="random" departSpeed="10" />
    <vehicle id="left2_left1_mid1_87" type="standard_car" route="left2_left1_mid1" depart="281" departLane="random" departSpeed="10" />
    <vehicle id="right1_right2_mid2_88" type="standard_car" route="right1_right2_mid2" depart="283" departLane="random" departSpeed="10" />
    <vehicle id="right2_bottom_r_89" type="standard_car" route="right2_bottom_r" depart="285" departLane="random" departSpeed="10" />
    <vehicle id="right2_bottom_r_90" type="standard_car" route="right2_bottom_r" depart="286" departLane="random" departSpeed="10" />
    <vehicle id="top_mid1_91" type="standard_car" route="top_mid1" depart="287" departLane="random" departSpeed="10" />
    <vehicle id="left2_left1_mid1_92" type="standard_car" route="left2_left1_mid1" depart="289" departLane="random" departSpeed="10" />
    <vehicle id="emergency_8" type="emergency" route="left1_top_r" depart="293" departLane="random" departSpeed="10" />
    <vehicle id="bottom_mid2_93" type="standard_car" route="bottom_mid2" depart="294" departLane="random" departSpeed="10" />
    <vehicle id="right2_mid2_94" type="standard_car" route="right2_mid2" depart="294" departLane="random" departSpeed="10" />
    <vehicle id="left1_mid1_95" type="standard_car" route="left1_mid1" depart="294" departLane="random" departSpeed="10" />
    <vehicle id="left2_left1_mid1_96" type="standard_car" route="left2_left1_mid1" depart="295" departLane="random" departSpeed="10" />
    <vehicle id="right2_mid2_97" type="standard_car" route="right2_mid2" depart="296" departLane="random" departSpeed="10" />
    <vehicle id="right2_bottom_r_98" type="standard_car" route="right2_bottom_r" depart="298" departLane="random" departSpeed="10" />
    <vehicle id="right2_bottom_r_99" type="standard_car" route="right2_bottom_r" depart="298" departLane="random" departSpeed="10" />
    <vehicle id="right2_mid2_100" type="standard_car" route="right2_mid2" depart="299" departLane="random" departSpeed="10" />
    <vehicle id="right2_mid2_101" type="standard_car" route="right2_mid2" depart="301" departLane="random" departSpeed="10" />
    <vehicle id="top_mid1_102" type="standard_car" route="top_mid1" depart="303" departLane="random" departSpeed="10" />
    <vehicle id="right2_mid2_103" type="standard_car" route="right2_mid2" depart="304" departLane="random" departSpeed="10" />
    <vehicle id="left1_mid1_104" type="standard_car" route="left1_mid1" depart="310" departLane="random" departSpeed="10" />
    <vehicle id="right2_mid2_105" type="standard_car" route="right2_mid2" depart="311" departLane="random" departSpeed="10" />
    <vehicle id="bottom_mid2_106" type="standard_car" route="bottom_mid2" depart="311" departLane="random" departSpeed="10" />
    <vehicle id="left1_mid1_107" type="standard_car" route="left1_mid1" depart="312" departLane="random" departSpeed="10" />
    <vehicle id="right2_mid2_108" type="standard_car" route="right2_mid2" depart="313" departLane="random" departSpeed="10" />
    <vehicle id="left1_mid1_109" type="standard_car" route="left1_mid1" depart="316" departLane="random" departSpeed="10" />
    <vehicle id="left2_left1_mid1_110" type="standard_car" route="left2_left1_mid1" depart="318" departLane="random" departSpeed="10" />
    <vehicle id="left2_left1_mid1_111" type="standard_car" route="left2_left1_mid1" depart="318" departLane="random" departSpeed="10" />
    <vehicle id="top_mid1_112" type="standard_car" route="top_mid1" depart="320" departLane="random" departSpeed="10" />
    <vehicle id="left1_top_r_113" type="standard_car" route="left1_top_r" depart="320" departLane="random" departSpeed="10" />
    <vehicle id="top_mid1_114" type="standard_car" route="top_mid1" depart="322" departLane="random" departSpeed="10" />
    <vehicle id="bottom_mid2_115" type="standard_car" route="bottom_mid2" depart="324" departLane="random" departSpeed="10" />
    <vehicle id="left2_left1_mid1_116" type="standard_car" route="left2_left1_mid1" depart="326" departLane="random" departSpeed="10" />
    <vehicle id="right1_right2_mid2_117" type="standard_car" route="right1_right2_mid2" depart="330" departLane="random" departSpeed="10" />
    <vehicle id="left2_left1_mid1_118" type="standard_car" route="left2_left1_mid1" depart="330" departLane="random" departSpeed="10" />
    <vehicle id="left1_top_r_119" type="standard_car" route="left1_top_r" depart="330" departLane="random" departSpeed="10" />
    <vehicle id="right2_bottom_r_120" type="standard_car" route="right2_bottom_r" depart="330" departLane="random" departSpeed="10" />
    <vehicle id="right2_mid2_121" type="standard_car" route="right2_mid2" depart="335" departLane="random" departSpeed="10" />
    <vehicle id="right1_right2_mid2_122" type="standard_car" route="right1_right2_mid2" depart="336" departLane="random" departSpeed="10" />
    <vehicle id="left1_top_r_123" type="standard_car" route="left1_top_r" depart="336" departLane="random" departSpeed="10" />
    <vehicle id="left2_left1_mid1_124" type="standard_car" route="left2_left1_mid1" depart="337" departLane="random" departSpeed="10" />
    <vehicle id="bottom_mid2_125" type="standard_car" route="bottom_mid2" depart="337" departLane="random" departSpeed="10" />
    <vehicle id="left2_left1_mid1_126" type="standard_car" route="left2_left1_mid1" depart="337" departLane="random" departSpeed="10" />
    <vehicle id="right2_bottom_r_127" type="standard_car" route="right2_bottom_r" depart="338" departLane="random" departSpeed="10" />
    <vehicle id="left1_mid1_128" type="standard_car" route="left1_mid1" depart="341" departLane="random" departSpeed="10" />
    <vehicle id="right2_mid2_129" type="standard_car" route="right2_mid2" depart="344" departLane="random" departSpeed="10" />
    <vehicle id="right2_mid2_130" type="standard_car" route="right2_mid2" depart="345" departLane="random" departSpeed="10" />
    <vehicle id="emergency_9" type="emergency" route="right2_mid2" depart="347" departLane="random" departSpeed="10" />
    <vehicle id="right1_right2_mid2_131" type="standard_car" route="right1_right2_mid2" depart="350" departLane="random" departSpeed="10" />
    <vehicle id="bottom_mid2_132" type="standard_car" route="bottom_mid2" depart="350" departLane="random" departSpeed="10" />
    <vehicle id="right2_mid2_133" type="standard_car" route="right2_mid2" depart="351" departLane="random" departSpeed="10" />
    <vehicle id="right1_right2_mid2_134" type="standard_car" route="right1_right2_mid2" depart="353" departLane="random" departSpeed="10" />
    <vehicle id="top_mid1_135" type="standard_car" route="top_mid1" depart="355" departLane="random" departSpeed="10" />
    <vehicle id="left2_left1_mid1_136" type="standard_car" route="left2_left1_mid1" depart="356" departLane="random" departSpeed="10" />
    <vehicle id="right1_right2_mid2_137" type="standard_car" route="right1_right2_mid2" depart="358" departLane="random" departSpeed="10" />
    <vehicle id="left2_left1_mid1_138" type="standard_car" route="left2_left1_mid1" depart="361" departLane="random" departSpeed="10" />
    <vehicle id="right1_right2_mid2_139" type="standard_car" route="right1_right2_mid2" depart="361" departLane="random" departSpeed="10" />
    <vehicle id="left2_left1_mid1_140" type="standard_car" route="left2_left1_mid1" depart="362" departLane="random" departSpeed="10" />
    <vehicle id="right1_right2_mid2_141" type="standard_car" route="right1_right2_mid2" depart="363" departLane="random" departSpeed="10" />
    <vehicle id="right2_bottom_r_142" type="standard_car" route="right2_bottom_r" depart="363" departLane="random" departSpeed="10" />
    <vehicle id="top_mid1_143" type="standard_car" route="top_mid1" depart="363" departLane="random" departSpeed="10" />
    <vehicle id="left1_mid1_144" type="standard_car" route="left1_mid1" depart="366" departLane="random" departSpeed="10" />
    <vehicle id="left2_left1_mid1_145" type="standard_car" route="left2_left1_mid1" depart="367" departLane="random" departSpeed="10" />
    <vehicle id="top_mid1_146" type="standard_car" route="top_mid1" depart="369" departLane="random" departSpeed="10" />
    <vehicle id="left1_mid1_147" type="standard_car" route="left1_mid1" depart="371" departLane="random" departSpeed="10" />
    <vehicle id="left1_top_r_148" type="standard_car" route="left1_top_r" depart="376" departLane="random" departSpeed="10" />
    <vehicle id="left2_left1_mid1_149" type="standard_car" route="left2_left1_mid1" depart="377" departLane="random" departSpeed="10" />
    <vehicle id="bottom_mid2_150" type="standard_car" route="bottom_mid2" depart="377" departLane="random" departSpeed="10" />
    <vehicle id="left1_mid1_151" type="standard_car" route="left1_mid1" depart="378" departLane="random" departSpeed="10" />
    <vehicle id="top_mid1_152" type="standard_car" route="top_mid1" depart="378" departLane="random" departSpeed="10" />
    <vehicle id="right2_mid2_153" type="standard_car" route="right2_mid2" depart="379" departLane="random" departSpeed="10" />
    <vehicle id="left2_left1_mid1_154" type="standard_car" route="left2_left1_mid1" depart="379" departLane="random" departSpeed="10" />
    <vehicle id="emergency_10" type="emergency" route="right2_bottom_r" depart="380" departLane="random" departSpeed="10" />
    <vehicle id="left1_mid1_155" type="standard_car" route="left1_mid1" depart="382" departLane="random" departSpeed="10" />
    <vehicle id="left1_top_r_156" type="standard_car" route="left1_top_r" depart="382" departLane="random" departSpeed="10" />
    <vehicle id="top_mid1_157" type="standard_car" route="top_mid1" depart="383" departLane="random" departSpeed="10" />
    <vehicle id="left1_mid1_158" type="standard_car" route="left1_mid1" depart="387" departLane="random" departSpeed="10" />
    <vehicle id="left1_mid1_159" type="standard_car" route="left1_mid1" depart="389" departLane="random" departSpeed="10" />
    <vehicle id="right1_right2_mid2_160" type="standard_car" route="right1_right2_mid2" depart="392" departLane="random" departSpeed="10" />
    <vehicle id="bottom_mid2_161" type="standard_car" route="bottom_mid2" depart="393" departLane="random" departSpeed="10" />
    <vehicle id="left1_mid1_162" type="standard_car" route="left1_mid1" depart="394" departLane="random" departSpeed="10" />
    <vehicle id="right2_bottom_r_163" type="standard_car" route="right2_bottom_r" depart="396" departLane="random" departSpeed="10" />
    <vehicle id="right2_mid2_164" type="standard_car" route="right2_mid2" depart="398" departLane="random" departSpeed="10" />
    <vehicle id="left1_mid1_165" type="standard_car" route="left1_mid1" depart="398" departLane="random" departSpeed="10" />
    <vehicle id="right1_right2_mid2_166" type="standard_car" route="right1_right2_mid2" depart="399" departLane="random" departSpeed="10" />
    <vehicle id="left1_mid1_167" type="standard_car" route="left1_mid1" depart="401" departLane="random" departSpeed="10" />
    <vehicle id="left1_top_r_168" type="standard_car" route="left1_top_r" depart="402" departLane="random" departSpeed="10" />
    <vehicle id="right2_mid2_169" type="standard_car" route="right2_mid2" depart="402" departLane="random" departSpeed="10" />
    <vehicle id="left2_left1_mid1_170" type="standard_car" route="left2_left1_mid1" depart="403" departLane="random" departSpeed="10" />
    <vehicle id="left1_top_r_171" type="standard_car" route="left1_top_r" depart="405" departLane="random" departSpeed="10" />
    <vehicle id="left1_mid1_172" type="standard_car" route="left1_mid1" depart="406" departLane="random" departSpeed="10" />
    <vehicle id="right1_right2_mid2_173" type="standard_car" route="right1_right2_mid2" depart="408" departLane="random" departSpeed="10" />
    <vehicle id="right2_bottom_r_174" type="standard_car" route="right2_bottom_r" depart="409" departLane="random" departSpeed="10" />
    <vehicle id="left1_mid1_175" type="standard_car" route="left1_mid1" depart="409" departLane="random" departSpeed="10" />
    <vehicle id="left1_top_r_176" type="standard_car" route="left1_top_r" depart="411" departLane="random" departSpeed="10" />
    <vehicle id="left1_top_r_177" type="standard_car" route="left1_top_r" depart="411" departLane="random" departSpeed="10" />
    <vehicle id="right2_mid2_178" type="standard_car" route="right2_mid2" depart="412" departLane="random" departSpeed="10" />
    <vehicle id="top_mid1_179" type="standard_car" route="top_mid1" depart="413" departLane="random" departSpeed="10" />
    <vehicle id="left2_left1_mid1_180" type="standard_car" route="left2_left1_mid1" depart="413" departLane="random" departSpeed="10" />
    <vehicle id="left2_left1_mid1_181" type="standard_car" route="left2_left1_mid1" depart="414" departLane="random" departSpeed="10" />
    <vehicle id="left1_top_r_182" type="standard_car" route="left1_top_r" depart="415" departLane="random" departSpeed="10" />
    <vehicle id="right2_bottom_r_183" type="standard_car" route="right2_bottom_r" depart="415" departLane="random" departSpeed="10" />
    <vehicle id="left1_top_r_184" type="standard_car" route="left1_top_r" depart="420" departLane="random" departSpeed="10" />
    <vehicle id="left2_left1_mid1_185" type="standard_car" route="left2_left1_mid1" depart="421" departLane="random" departSpeed="10" />
    <vehicle id="left2_left1_mid1_186" type="standard_car" route="left2_left1_mid1" depart="421" departLane="random" departSpeed="10" />
    <vehicle id="left1_top_r_187" type="standard_car" route="left1_top_r" depart="422" departLane="random" departSpeed="10" />
    <vehicle id="right1_right2_mid2_188" type="standard_car" route="right1_right2_mid2" depart="422" departLane="random" departSpeed="10" />
    <vehicle id="right2_mid2_189" type="standard_car" route="right2_mid2" depart="423" departLane="random" departSpeed="10" />
    <vehicle id="bottom_mid2_190" type="standard_car" route="bottom_mid2" depart="424" departLane="random" departSpeed="10" />
    <vehicle id="right2_mid2_191" type="standard_car" route="right2_mid2" depart="425" departLane="random" departSpeed="10" />
    <vehicle id="right2_bottom_r_192" type="standard_car" route="right2_bottom_r" depart="425" departLane="random" departSpeed="10" />
    <vehicle id="bottom_mid2_193" type="standard_car" route="bottom_mid2" depart="425" departLane="random" departSpeed="10" />
    <vehicle id="right2_bottom_r_194" type="standard_car" route="right2_bottom_r" depart="426" departLane="random" departSpeed="10" />
    <vehicle id="top_mid1_195" type="standard_car" route="top_mid1" depart="426" departLane="random" departSpeed="10" />
    <vehicle id="top_mid1_196" type="standard_car" route="top_mid1" depart="428" departLane="random" departSpeed="10" />
    <vehicle id="top_mid1_197" type="standard_car" route="top_mid1" depart="429" departLane="random" departSpeed="10" />
    <vehicle id="right1_right2_mid2_198" type="standard_car" route="right1_right2_mid2" depart="431" departLane="random" departSpeed="10" />
    <vehicle id="right1_right2_mid2_199" type="standard_car" route="right1_right2_mid2" depart="432" departLane="random" departSpeed="10" />
    <vehicle id="left2_left1_mid1_200" type="standard_car" route="left2_left1_mid1" depart="432" departLane="random" departSpeed="10" />
    <vehicle id="bottom_mid2_201" type="standard_car" route="bottom_mid2" depart="436" departLane="random" departSpeed="10" />
    <vehicle id="right2_mid2_202" type="standard_car" route="right2_mid2" depart="439" departLane="random" departSpeed="10" />
    <vehicle id="right2_bottom_r_203" type="standard_car" route="right2_bottom_r" depart="439" departLane="random" departSpeed="10" />
    <vehicle id="left2_left1_mid1_204" type="standard_car" route="left2_left1_mid1" depart="440" departLane="random" departSpeed="10" />
    <vehicle id="right1_right2_mid2_205" type="standard_car" route="right1_right2_mid2" depart="440" departLane="random" departSpeed="10" />
    <vehicle id="left2_left1_mid1_206" type="standard_car" route="left2_left1_mid1" depart="440" departLane="random" departSpeed="10" />
    <vehicle id="top_mid1_207" type="standard_car" route="top_mid1" depart="443" departLane="random" departSpeed="10" />
    <vehicle id="right2_mid2_208" type="standard_car" route="right2_mid2" depart="446" departLane="random" departSpeed="10" />
    <vehicle id="left1_top_r_209" type="standard_car" route="left1_top_r" depart="446" departLane="random" departSpeed="10" />
    <vehicle id="right2_mid2_210" type="standard_car" route="right2_mid2" depart="446" departLane="random" departSpeed="10" />
    <vehicle id="right2_mid2_211" type="standard_car" route="right2_mid2" depart="448" departLane="random" departSpeed="10" />
    <vehicle id="right2_mid2_212" type="standard_car" route="right2_mid2" depart="448" departLane="random" departSpeed="10" />
    <vehicle id="right1_right2_mid2_213" type="standard_car" route="right1_right2_mid2" depart="448" departLane="random" departSpeed="10" />
    <vehicle id="bottom_mid2_214" type="standard_car" route="bottom_mid2" depart="453" departLane="random" departSpeed="10" />
    <vehicle id="bottom_mid2_215" type="standard_car" route="bottom_mid2" depart="453" departLane="random" departSpeed="10" />