<routes>
    <vType id="emergency" accel="3.0" decel="6.0" color="1,0,0" maxSpeed="20" sigma="0.5" emergency="true"/>
    <vType id="standard_car" accel="1.0" decel="4.5" length="5.0" minGap="2.5" maxSpeed="25" sigma="0.5"/>

    <route id="left1_mid1" edges="left1 mid1"/>
    <route id="right2_mid2" edges="right2 mid2"/>
    <route id="top_mid1" edges="top mid1"/>
    <route id="bottom_mid2" edges="bottom mid2"/>
    <route id="left1_top_r" edges="left1 top_r"/>
    <route id="right2_bottom_r" edges="right2 bottom_r"/>
    <vehicle id="left1_mid1_0" type="standard_car" route="left1_mid1" depart="22" departLane="random" departSpeed="10" />
    <vehicle id="bottom_mid2_1" type="standard_car" route="bottom_mid2" depart="28" departLane="random" departSpeed="10" />
    <vehicle id="left1_top_r_2" type="standard_car" route="left1_top_r" depart="38" departLane="random" departSpeed="10" />
    <vehicle id="right2_mid2_3" type="standard_car" route="right2_mid2" depart="43" departLane="random" departSpeed="10" />
    <vehicle id="top_mid1_4" type="standard_car" route="top_mid1" depart="51" departLane="random" departSpeed="10" />
    <vehicle id="right2_bottom_r_5" type="standard_car" route="right2_bottom_r" depart="67" departLane="random" departSpeed="10" />
    <vehicle id="left1_mid1_6" type="standard_car" route="left1_mid1" depart="71" departLane="random" departSpeed="10" />
    <vehicle id="right2_mid2_7" type="standard_car" route="right2_mid2" depart="81" departLane="random" departSpeed="10" />
    <vehicle id="left1_mid1_8" type="standard_car" route="left1_mid1" depart="88" departLane="random" departSpeed="10" />
    <vehicle id="left1_mid1_9" type="standard_car" route="left1_mid1" depart="96" departLane="random" departSpeed="10" />
    <vehicle id="left1_mid1_10" type="standard_car" route="left1_mid1" depart="98" departLane="random" departSpeed="10" />
    <vehicle id="right2_mid2_11" type="standard_car" route="right2_mid2" depart="138" departLane="random" departSpeed="10" />
    <vehicle id="right2_mid2_12" type="standard_car" route="right2_mid2" depart="140" departLane="random" departSpeed="10" />
    <vehicle id="right2_mid2_13" type="standard_car" route="right2_mid2" depart="140" departLane="random" departSpeed="10" />
    <vehicle id="bottom_mid2_14" type="standard_car" route="bottom_mid2" depart="153" departLane="random" departSpeed="10" />
    <vehicle id="right2_mid2_15" type="standard_car" route="right2_mid2" depart="157" departLane="random" departSpeed="10" />
    <vehicle id="right2_mid2_16" type="standard_car" route="right2_mid2" depart="164" departLane="random" departSpeed="10" />
    <vehicle id="right2_mid2_17" type="standard_car" route="right2_mid2" depart="169" departLane="random" departSpeed="10" />
    <vehicle id="left1_mid1_18" type="standard_car" route="left1_mid1" depart="170" departLane="random" departSpeed="10" />
    <vehicle id="left1_mid1_19" type="standard_car" route="left1_mid1" depart="181" departLane="random" departSpeed="10" />
    <vehicle id="right2_mid2_20" type="standard_car" route="right2_mid2" depart="181" departLane="random" departSpeed="10" />
    <vehicle id="bottom_mid2_21" type="standard_car" route="bottom_mid2" depart="184" departLane="random" departSpeed="10" />
    <vehicle id="left1_mid1_22" type="standard_car" route="left1_mid1" depart="184" departLane="random" departSpeed="10" />
    <vehicle id="left1_mid1_23" type="standard_car" route="left1_mid1" depart="200" departLane="random" departSpeed="10" />
    <vehicle id="left1_mid1_24" type="standard_car" route="left1_mid1" depart="201" departLane="random" departSpeed="10" />
    <vehicle id="right2_mid2_25" type="standard_car" route="right2_mid2" depart="202" departLane="random" departSpeed="10" />
    <vehicle id="left1_top_r_26" type="standard_car" route="left1_top_r" depart="212" departLane="random" departSpeed="10" />
    <vehicle id="right2_bottom_r_27" type="standard_car" route="right2_bottom_r" depart="214" departLane="random" departSpeed="10" />
    <vehicle id="right2_mid2_28" type="standard_car" route="right2_mid2" depart="217" departLane="random" departSpeed="10" />
    <vehicle id="top_mid1_29" type="standard_car" route="top_mid1" depart="222" departLane="random" departSpeed="10" />
    <vehicle id="right2_bottom_r_30" type="standard_car" route="right2_bottom_r" depart="223" departLane="random" departSpeed="10" />
    <vehicle id="right2_mid2_31" type="standard_car" route="right2_mid2" depart="223" departLane="random" departSpeed="10" />
    <vehicle id="bottom_mid2_32" type="standard_car" route="bottom_mid2" depart="233" departLane="random" departSpeed="10" />
    <vehicle id="right2_mid2_33" type="standard_car" route="right2_mid2" depart="235" departLane="random" departSpeed="10" />
    <vehicle id="top_mid1_34" type="standard_car" route="top_mid1" depart="238" departLane="random" departSpeed="10" />
    <vehicle id="left1_mid1_35" type="standard_car" route="left1_mid1" depart="239" departLane="random" departSpeed="10" />
    <vehicle id="top_mid1_36" type="standard_car" route="top_mid1" depart="241" departLane="random" departSpeed="10" />
    <vehicle id="left1_mid1_37" type="standard_car" route="left1_mid1" depart="241" departLane="random" departSpeed="10" />
    <vehicle id="bottom_mid2_38" type="standard_car" route="bottom_mid2" depart="242" departLane="random" departSpeed="10" />
    <vehicle id="left1_mid1_39" type="standard_car" route="left1_mid1" depart="243" departLane="random" departSpeed="10" />
    <vehicle id="left1_mid1_40" type="standard_car" route="left1_mid1" depart="243" departLane="random" departSpeed="10" />
    <vehicle id="top_mid1_41" type="standard_car" route="top_mid1" depart="246" departLane="random" departSpeed="10" />
    <vehicle id="right2_mid2_42" type="standard_car" route="right2_mid2" depart="247" departLane="random" departSpeed="10" />
    <vehicle id="right2_bottom_r_43" type="standard_car" route="right2_bottom_r" depart="264" departLane="random" departSpeed="10" />
    <vehicle id="right2_mid2_44" type="standard_car" route="right2_mid2" depart="267" departLane="random" departSpeed="10" />
    <vehicle id="right2_mid2_45" type="standard_car" route="right2_mid2" depart="270" departLane="random" departSpeed="10" />
    <vehicle id="left1_mid1_46" type="standard_car" route="left1_mid1" depart="271" departLane="random" departSpeed="10" />
    <vehicle id="right2_mid2_47" type="standard_car" route="right2_mid2" depart="279" departLane="random" departSpeed="10" />
    <vehicle id="bottom_mid2_48" type="standard_car" route="bottom_mid2" depart="282" departLane="random" departSpeed="10" />
    <vehicle id="right2_mid2_49" type="standard_car" route="right2_mid2" depart="282" departLane="random" departSpeed="10" />
    <vehicle id="right2_mid2_50" type="standard_car" route="right2_mid2" depart="288" departLane="random" departSpeed="10" />
    <vehicle id="left1_mid1_51" type="standard_car" route="left1_mid1" depart="292" departLane="random" departSpeed="10" />
    <vehicle id="left1_mid1_52" type="standard_car" route="left1_mid1" depart="294" departLane="random" departSpeed="10" />
    <vehicle id="bottom_mid2_53" type="standard_car" route="bottom_mid2" depart="298" departLane="random" departSpeed="10" />
    <vehicle id="left1_mid1_54" type="standard_car" route="left1_mid1" depart="299" departLane="random" departSpeed="10" />
    <vehicle id="bottom_mid2_55" type="standard_car" route="bottom_mid2" depart="300" departLane="random" departSpeed="10" />
    <vehicle id="left1_mid1_56" type="standard_car" route="left1_mid1" depart="302" departLane="random" departSpeed="10" />
    <vehicle id="bottom_mid2_57" type="standard_car" route="bottom_mid2" depart="303" departLane="random" departSpeed="10" />
    <vehicle id="right2_bottom_r_58" type="standard_car" route="right2_bottom_r" depart="304" departLane="random" departSpeed="10" />
    <vehicle id="left1_mid1_59" type="standard_car" route="left1_mid1" depart="305" departLane="random" departSpeed="10" />
    <vehicle id="right2_mid2_60" type="standard_car" route="right2_mid2" depart="306" departLane="random" departSpeed="10" />
    <vehicle id="top_mid1_61" type="standard_car" route="top_mid1" depart="309" departLane="random" departSpeed="10" />
    <vehicle id="right2_bottom_r_62" type="standard_car" route="right2_bottom_r" depart="312" departLane="random" departSpeed="10" />
    <vehicle id="left1_mid1_63" type="standard_car" route="left1_mid1" depart="316" departLane="random" departSpeed="10" />
    <vehicle id="top_mid1_64" type="standard_car" route="top_mid1" depart="317" departLane="random" departSpeed="10" />
    <vehicle id="bottom_mid2_65" type="standard_car" route="bottom_mid2" depart="318" departLane="random" departSpeed="10" />
    <vehicle id="left1_mid1_66" type="standard_car" route="left1_mid1" depart="318" departLane="random" departSpeed="10" />
    <vehicle id="right2_bottom_r_67" type="standard_car" route="right2_bottom_r" depart="319" departLane="random" departSpeed="10" />
    <vehicle id="right2_bottom_r_68" type="standard_car" route="right2_bottom_r" depart="321" departLane="random" departSpeed="10" />
    <vehicle id="left1_mid1_69" type="standard_car" route="left1_mid1" depart="323" departLane="random" departSpeed="10" />
    <vehicle id="right2_mid2_70" type="standard_car" route="right2_mid2" depart="326" departLane="random" departSpeed="10" />
    <vehicle id="left1_top_r_71" type="standard_car" route="left1_top_r" depart="327" departLane="random" departSpeed="10" />
    <vehicle id="top_mid1_72" type="standard_car" route="top_mid1" depart="333" departLane="random" departSpeed="10" />
    <vehicle id="left1_mid1_73" type="standard_car" route="left1_mid1" depart="343" departLane="random" departSpeed="10" />
    <vehicle id="top_mid1_74" type="standard_car" route="top_mid1" depart="349" departLane="random" departSpeed="10" />
    <vehicle id="bottom_mid2_75" type="standard_car" route="bottom_mid2" depart="350" departLane="random" departSpeed="10" />
    <vehicle id="bottom_mid2_76" type="standard_car" route="bottom_mid2" depart="350" departLane="random" departSpeed="10" />
    <vehicle id="left1_mid1_77" type="standard_car" route="left1_mid1" depart="351" departLane="random" departSpeed="10" />
    <vehicle id="right2_mid2_78" type="standard_car" route="right2_mid2" depart="352" departLane="random" departSpeed="10" />
    <vehicle id="right2_mid2_79" type="standard_car" route="right2_mid2" depart="353" departLane="random" departSpeed="10" />
    <vehicle id="bottom_mid2_80" type="standard_car" route="bottom_mid2" depart="353" departLane="random" departSpeed="10" />
    <vehicle id="right2_mid2_81" type="standard_car" route="right2_mid2" depart="354" departLane="random" departSpeed="10" />
    <vehicle id="right2_mid2_82" type="standard_car" route="right2_mid2" depart="356" departLane="random" departSpeed="10" />
    <vehicle id="left1_mid1_83" type="standard_car" route="left1_mid1" depart="356" departLane="random" departSpeed="10" />
    <vehicle id="left1_mid1_84" type="standard_car" route="left1_mid1" depart="356" departLane="random" departSpeed="10" />
    <vehicle id="left1_mid1_85" type="standard_car" route="left1_mid1" depart="357" departLane="random" departSpeed="10" />
    <vehicle id="right2_mid2_86" type="standard_car" route="right2_mid2" depart="360" departLane="random" departSpeed="10" />
    <vehicle id="left1_mid1_87" type="standard_car" route="left1_mid1" depart="363" departLane="random" departSpeed="10" />
    <vehicle id="left1_mid1_88" type="standard_car" route="left1_mid1" depart="367" departLane="random" departSpeed="10" />
    <vehicle id="left1_mid1_89" type="standard_car" route="left1_mid1" depart="369" departLane="random" departSpeed="10" />
    <vehicle id="right2_mid2_90" type="standard_car" route="right2_mid2" depart="375" departLane="random" departSpeed="10" />
    <vehicle id="bottom_mid2_91" type="standard_car" route="bottom_mid2" depart="378" departLane="random" departSpeed="10" />
    <vehicle id="right2_bottom_r_92" type="standard_car" route="right2_bottom_r" depart="380" departLane="random" departSpeed="10" />
    <vehicle id="left1_mid1_93" type="standard_car" route="left1_mid1" depart="382" departLane="random" departSpeed="10" />
    <vehicle id="left1_mid1_94" type="standard_car" route="left1_mid1" depart="386" departLane="random" departSpeed="10" />
    <vehicle id="top_mid1_95" type="standard_car" route="top_mid1" depart="391" departLane="random" departSpeed="10" />
    <vehicle id="left1_mid1_96" type="standard_car" route="left1_mid1" depart="392" departLane="random" departSpeed="10" />
    <vehicle id="right2_mid2_97" type="standard_car" route="right2_mid2" depart="394" departLane="random" departSpeed="10" />
    <vehicle id="left1_mid1_98" type="standard_car" route="left1_mid1" depart="397" departLane="random" departSpeed="10" />
    <vehicle id="left1_mid1_99" type="standard_car" route="left1_mid1" depart="398" departLane="random" departSpeed="10" />
    <vehicle id="left1_mid1_100" type="standard_car" route="left1_mid1" depart="400" departLane="random" departSpeed="10" />
    <vehicle id="right2_mid2_101" type="standard_car" route="right2_mid2" depart="403" departLane="random" departSpeed="10" />
    <vehicle id="right2_mid2_102" type="standard_car" route="right2_mid2" depart="406" departLane="random" departSpeed="10" />
    <vehicle id="top_mid1_103" type="standard_car" route="top_mid1" depart="407" departLane="random" departSpeed="10" />
    <vehicle id="right2_mid2_104" type="standard_car" route="right2_mid2" depart="410" departLane="random" departSpeed="10" />
    <vehicle id="left1_mid1_105" type="standard_car" route="left1_mid1" depart="415" departLane="random" departSpeed="10" />
    <vehicle id="left1_mid1_106" type="standard_car" route="left1_mid1" depart="426" departLane="random" departSpeed="10" />
    <vehicle id="right2_mid2_107" type="standard_car" route="right2_mid2" depart="428" departLane="random" departSpeed="10" />
    <vehicle id="bottom_mid2_108" type="standard_car" route="bottom_mid2" depart="433" departLane="random" departSpeed="10" />
    <vehicle id="left1_top_r_109" type="standard_car" route="left1_top_r" depart="441" departLane="random" departSpeed="10" />
    <vehicle id="left1_top_r_110" type="standard_car" route="left1_top_r" depart="445" departLane="random" departSpeed="10" />
    <vehicle id="left1_mid1_111" type="standard_car" route="left1_mid1" depart="447" departLane="random" departSpeed="10" />
    <vehicle id="top_mid1_112" type="standard_car" route="top_mid1" depart="447" departLane="random" departSpeed="10" />
    <vehicle id="right2_mid2_113" type="standard_car" route="right2_mid2" depart="452" departLane="random" departSpeed="10" />
    <vehicle id="left1_mid1_114" type="standard_car" route="left1_mid1" depart="452" departLane="random" departSpeed="10" />
    <vehicle id="left1_mid1_115" type="standard_car" route="left1_mid1" depart="453" departLane="random" departSpeed="10" />
    <vehicle id="bottom_mid2_116" type="standard_car" route="bottom_mid2" depart="455" departLane="random" departSpeed="10" />
    <vehicle id="top_mid1_117" type="standard_car" route="top_mid1" depart="456" departLane="random" departSpeed="10" />
    <vehicle id="bottom_mid2_118" type="standard_car" route="bottom_mid2" depart="457" departLane="random" departSpeed="10" />
    <vehicle id="left1_mid1_119" type="standard_car" route="left1_mid1" depart="458" departLane="random" departSpeed="10" />
    <vehicle id="bottom_mid2_120" type="standard_car" route="bottom_mid2" depart="459" departLane="random" departSpeed="10" />
    <vehicle id="left1_top_r_121" type="standard_car" route="left1_top_r" depart="462" departLane="random" departSpeed="10" />
    <vehicle id="left1_top_r_122" type="standard_car" route="left1_top_r" depart="463" departLane="random" departSpeed="10" />
    <vehicle id="left1_top_r_123" type="standard_car" route="left1_top_r" depart="464" departLane="random" departSpeed="10" />
    <vehicle id="left1_top_r_124" type="standard_car" route="left1_top_r" depart="464" departLane="random" departSpeed="10" />
    <vehicle id="right2_mid2_125" type="standard_car" route="right2_mid2" depart="469" departLane="random" departSpeed="10" />
    <vehicle id="left1_mid1_126" type="standard_car" route="left1_mid1" depart="469" departLane="random" departSpeed="10" />
    <vehicle id="right2_mid2_127" type="standard_car" route="right2_mid2" depart="470" departLane="random" departSpeed="10" />
    <vehicle id="right2_bottom_r_128" type="standard_car" route="right2_bottom_r" depart="472" departLane="random" departSpeed="10" />
    <vehicle id="right2_mid2_129" type="standard_car" route="right2_mid2" depart="474" departLane="random" departSpeed="10" />
    <vehicle id="right2_mid2_130" type="standard_car" route="right2_mid2" depart="475" departLane="random" departSpeed="10" />
    <vehicle id="left1_mid1_131" type="standard_car" route="left1_mid1" depart="477" departLane="random" departSpeed="10" />
    <vehicle id="left1_mid1_132" type="standard_car" route="left1_mid1" depart="477" departLane="random" departSpeed="10" />
    <vehicle id="top_mid1_133" type="standard_car" route="top_mid1" depart="478" departLane="random" departSpeed="10" />
    <vehicle id="bottom_mid2_134" type="standard_car" route="bottom_mid2" depart="480" departLane="random" departSpeed="10" />
    <vehicle id="left1_mid1_135" type="standard_car" route="left1_mid1" depart="483" departLane="random" departSpeed="10" />
    <vehicle id="right2_mid2_136" type="standard_car" route="right2_mid2" depart="485" departLane="random" departSpeed="10" />
    <vehicle id="right2_mid2_137" type="standard_car" route="right2_mid2" depart="488" departLane="random" departSpeed="10" />
    <vehicle id="right2_mid2_138" type="standard_car" route="right2_mid2" depart="491" departLane="random" departSpeed="10" />
    <vehicle id="right2_mid2_139" type="standard_car" route="right2_mid2" depart="495" departLane="random" departSpeed="10" />
    <vehicle id="right2_mid2_140" type="standard_car" route="right2_mid2" depart="495" departLane="random" departSpeed="10" />
    <vehicle id="left1_mid1_141" type="standard_car" route="left1_mid1" depart="498" departLane="random" departSpeed="10" />
    <vehicle id="left1_top_r_142" type="standard_car" route="left1_top_r" depart="500" departLane="random" departSpeed="10" />
    <vehicle id="right2_mid2_143" type="standard_car" route="right2_mid2" depart="504" departLane="random" departSpeed="10" />
    <vehicle id="bottom_mid2_144" type="standard_car" route="bottom_mid2" depart="507" departLane="random" departSpeed="10" />
    <vehicle id="right2_mid2_145" type="standard_car" route="right2_mid2" depart="511" departLane="random" departSpeed="10" />
    <vehicle id="right2_mid2_146" type="standard_car" route="right2_mid2" depart="512" departLane="random" departSpeed="10" />
    <vehicle id="bottom_mid2_147" type="standard_car" route="bottom_mid2" depart="512" departLane="random" departSpeed="10" />
    <vehicle id="left1_mid1_148" type="standard_car" route="left1_mid1" depart="514" departLane="random" departSpeed="10" />
    <vehicle id="left1_mid1_149" type="standard_car" route="left1_mid1" depart="519" departLane="random" departSpeed="10" />
    <vehicle id="top_mid1_150" type="standard_car" route="top_mid1" depart="520" departLane="random" departSpeed="10" />
    <vehicle id="top_mid1_151" type="standard_car" route="top_mid1" depart="521" departLane="random" departSpeed="10" />
    <vehicle id="left1_top_r_152" type="standard_car" route="left1_top_r" depart="522" departLane="random" departSpeed="10" />
    <vehicle id="right2_mid2_153" type="standard_car" route="right2_mid2" depart="523" departLane="random" departSpeed="10" />
    <vehicle id="right2_mid2_154" type="standard_car" route="right2_mid2" depart="523" departLane="random" departSpeed="10" />
    <vehicle id="right2_mid2_155" type="standard_car" route="right2_mid2" depart="526" departLane="random" departSpeed="10" />
    <vehicle id="left1_mid1_156" type="standard_car" route="left1_mid1" depart="526" departLane="random" departSpeed="10" />
    <vehicle id="left1_mid1_157" type="standard_car" route="left1_mid1" depart="528" departLane="random" departSpeed="10" />
    <vehicle id="bottom_mid2_158" type="standard_car" route="bottom_mid2" depart="531" departLane="random" departSpeed="10" />
    <vehicle id="right2_bottom_r_159" type="standard_car" route="right2_bottom_r" depart="533" departLane="random" departSpeed="10" />
    <vehicle id="right2_mid2_160" type="standard_car" route="right2_mid2" depart="533" departLane="random" departSpeed="10" />
    <vehicle id="top_mid1_161" type="standard_car" route="top_mid1" depart="534" departLane="random" departSpeed="10" />
    <vehicle id="left1_mid1_162" type="standard_car" route="left1_mid1" depart="541" departLane="random" departSpeed="10" />
    <vehicle id="right2_bottom_r_163" type="standard_car" route="right2_bottom_r" depart="541" departLane="random" departSpeed="10" />
    <vehicle id="left1_mid1_164" type="standard_car" route="left1_mid1" depart="542" departLane="random" departSpeed="10" />
    <vehicle id="left1_mid1_165" type="standard_car" route="left1_mid1" depart="546" departLane="random" departSpeed="10" />
    <vehicle id="right2_bottom_r_166" type="standard_car" route="right2_bottom_r" depart="555" departLane="random" departSpeed="10" />
    <vehicle id="right2_bottom_r_167" type="standard_car" route="right2_bottom_r" depart="559" departLane="random" departSpeed="10" />
    <vehicle id="right2_bottom_r_168" type="standard_car" route="right2_bottom_r" depart="561" departLane="random" departSpeed="10" />
    <vehicle id="right2_mid2_169" type="standard_car" route="right2_mid2" depart="564" departLane="random" departSpeed="10" />
    <vehicle id="right2_bottom_r_170" type="standard_car" route="right2_bottom_r" depart="565" departLane="random" departSpeed="10" />
    <vehicle id="left1_top_r_171" type="standard_car" route="left1_top_r" depart="565" departLane="random" departSpeed="10" />
    <vehicle id="right2_mid2_172" type="standard_car" route="right2_mid2" depart="567" departLane="random" departSpeed="10" />
    <vehicle id="right2_mid2_173" type="standard_car" route="right2_mid2" depart="568" departLane="random" departSpeed="10" />
    <vehicle id="top_mid1_174" type="standard_car" route="top_mid1" depart="569" departLane="random" departSpeed="10" />
    <vehicle id="left1_mid1_175" type="standard_car" route="left1_mid1" depart="571" departLane="random" departSpeed="10" />
    <vehicle id="left1_mid1_176" type="standard_car" route="left1_mid1" depart="571" departLane="random" departSpeed="10" />
    <vehicle id="top_mid1_177" type="standard_car" route="top_mid1" depart="573" departLane="random" departSpeed="10" />
    <vehicle id="left1_mid1_178" type="standard_car" route="left1_mid1" depart="573" departLane="random" departSpeed="10" />
    <vehicle id="left1_mid1_179" type="standard_car" route="left1_mid1" depart="574" departLane="random" departSpeed="10" />
    <vehicle id="top_mid1_180" type="standard_car" route="top_mid1" depart="577" departLane="random" departSpeed="10" />
    <vehicle id="bottom_mid2_181" type="standard_car" route="bottom_mid2" depart="577" departLane="random" departSpeed="10" />
    <vehicle id="right2_mid2_182" type="standard_car" route="right2_mid2" depart="579" departLane="random" departSpeed="10" />
    <vehicle id="right2_bottom_r_183" type="standard_car" route="right2_bottom_r" depart="581" departLane="random" departSpeed="10" />
    <vehicle id="left1_top_r_184" type="standard_car" route="left1_top_r" depart="584" departLane="random" departSpeed="10" />
    <vehicle id="right2_bottom_r_185" type="standard_car" route="right2_bottom_r" depart="584" departLane="random" departSpeed="10" />
    <vehicle id="left1_top_r_186" type="standard_car" route="left1_top_r" depart="588" departLane="random" departSpeed="10" />
    <vehicle id="right2_mid2_187" type="standard_car" route="right2_mid2" depart="588" departLane="random" departSpeed="10" />
    <vehicle id="right2_mid2_188" type="standard_car" route="right2_mid2" depart="588" departLane="random" departSpeed="10" />
    <vehicle id="bottom_mid2_189" type="standard_car" route="bottom_mid2" depart="591" departLane="random" departSpeed="10" />
    <vehicle id="left1_mid1_190" type="standard_car" route="left1_mid1" depart="591" departLane="random" departSpeed="10" />
    <vehicle id="right2_bottom_r_191" type="standard_car" route="right2_bottom_r" depart="593" departLane="random" departSpeed="10" />
    <vehicle id="right2_mid2_192" type="standard_car" route="right2_mid2" depart="593" departLane="random" departSpeed="10" />
    <vehicle id="bottom_mid2_193" type="standard_car" route="bottom_mid2" depart="596" departLane="random" departSpeed="10" />
    <vehicle id="left1_mid1_194" type="standard_car" route="left1_mid1" depart="596" departLane="random" departSpeed="10" />
    <vehicle id="left1_mid1_195" type="standard_car" route="left1_mid1" depart="597" departLane="random" departSpeed="10" />
    <vehicle id="right2_mid2_196" type="standard_car" route="right2_mid2" depart="598" departLane="random" departSpeed="10" />
    <vehicle id="right2_bottom_r_197" type="standard_car" route="right2_bottom_r" depart="603" departLane="random" departSpeed="10" />
    <vehicle id="right2_bottom_r_198" type="standard_car" route="right2_bottom_r" depart="605" departLane="random" departSpeed="10" />
    <vehicle id="left1_top_r_199" type="standard_car" route="left1_top_r" depart="607" departLane="random" departSpeed="10" />
    <vehicle id="left1_mid1_200" type="standard_car" route="left1_mid1" depart="608" departLane="random" departSpeed="10" />
    <vehicle id="left1_top_r_201" type="standard_car" route="left1_top_r" depart="608" departLane="random" departSpeed="10" />
    <vehicle id="left1_mid1_202" type="standard_car" route="left1_mid1" depart="609" departLane="random" departSpeed="10" />
    <vehicle id="left1_mid1_203" type="standard_car" route="left1_mid1" depart="610" departLane="random" departSpeed="10" />
    <vehicle id="right2_bottom_r_204" type="standard_car" route="right2_bottom_r" depart="611" departLane="random" departSpeed="10" />
    <vehicle id="left1_mid1_205" type="standard_car" route="left1_mid1" depart="611" departLane="random" departSpeed="10" />
    <vehicle id="right2_bottom_r_206" type="standard_car" route="right2_bottom_r" depart="613" departLane="random" departSpeed="10" />
    <vehicle id="left1_mid1_207" type="standard_car" route="left1_mid1" depart="614" departLane="random" departSpeed="10" />
    <vehicle id="left1_mid1_208" type="standard_car" route="left1_mid1" depart="615" departLane="random" departSpeed="10" />
    <vehicle id="left1_mid1_209" type="standard_car" route="left1_mid1" depart="616" departLane="random" departSpeed="10" />
    <vehicle id="right2_bottom_r_210" type="standard_car" route="right2_bottom_r" depart="617" departLane="random" departSpeed="10" />
    <vehicle id="left1_top_r_211" type="standard_car" route="left1_top_r" depart="617" departLane="random" departSpeed="10" />
    <vehicle id="top_mid1_212" type="standard_car" route="top_mid1" depart="618" departLane="random" departSpeed="10" />
    <vehicle id="left1_top_r_213" type="standard_car" route="left1_top_r" depart="620" departLane="random" departSpeed="10" />
    <vehicle id="right2_mid2_214" type="standard_car" route="right2_mid2" depart="621" departLane="random" departSpeed="10" />
    <vehicle id="left1_mid1_215" type="standard_car" route="left1_mid1" depart="622" departLane="random" departSpeed="10" />
    <vehicle id="top_mid1_216" type="standard_car" route="top_mid1" depart="624" departLane="random" departSpeed="10" />
    <vehicle id="left1_mid1_217" type="standard_car" route="left1_mid1" depart="628" departLane="random" departSpeed="10" />
    <vehicle id="bottom_mid2_218" type="standard_car" route="bottom_mid2" depart="634" departLane="random" departSpeed="10" />
    <vehicle id="left1_mid1_219" type="standard_car" route="left1_mid1" depart="634" departLane="random" departSpeed="10" />
    <vehicle id="right2_mid2_220" type="standard_car" route="right2_mid2" depart="635" departLane="random" departSpeed="10" />
    <vehicle id="left1_mid1_221" type="standard_car" route="left1_mid1" depart="637" departLane="random" departSpeed="10" />
    <vehicle id="right2_mid2_222" type="standard_car" route="right2_mid2" depart="640" departLane="random" departSpeed="10" />
    <vehicle id="top_mid1_223" type="standard_car" route="top_mid1" depart="642" departLane="random" departSpeed="10" />
    <vehicle id="left1_mid1_224" type="standard_car" route="left1_mid1" depart="642" departLane="random" departSpeed="10" />
    <vehicle id="left1_mid1_225" type="standard_car" route="left1_mid1" depart="643" departLane="random" departSpeed="10" />
    <vehicle id="left1_top_r_226" type="standard_car" route="left1_top_r" depart="647" departLane="random" departSpeed="10" />
    <vehicle id="right2_mid2_227" type="standard_car" route="right2_mid2" depart="647" departLane="random" departSpeed="10" />
    <vehicle id="left1_top_r_228" type="standard_car" route="left1_top_r" depart="649" departLane="random" departSpeed="10" />
    <vehicle id="top_mid1_229" type="standard_car" route="top_mid1" depart="649" departLane="random" departSpeed="10" />
    <vehicle id="top_mid1_230" type="standard_car" route="top_mid1" depart="650" departLane="random" departSpeed="10" />
    <vehicle id="right2_mid2_231" type="standard_car" route="right2_mid2" depart="651" departLane="random" departSpeed="10" />
    <vehicle id="right2_mid2_232" type="standard_car" route="right2_mid2" depart="651" departLane="random" departSpeed="10" />