<?xml version="1.0" encoding="UTF-8"?>
<configuration>
    <input>

        <net-file value="double_t.net.xml"/>
        <route-files value="double_t.rou.xml"/>

    </input>
    <time>
        <begin value="0"/>
        <step-length value="1.0"/>
    </time>
    <report>
        <verbose value="true"/>
        <no-step-log value="true"/>
    </report>
</configuration>