<routes>
    <vType id="emergency" accel="3.0" decel="6.0" color="1,0,0" maxSpeed="20" sigma="0.5" emergency="true"/>
    <vType id="standard_car" accel="1.0" decel="4.5" length="5.0" minGap="2.5" maxSpeed="25" sigma="0.5"/>

    <route id="left1_mid1" edges="left1 mid1"/>
    <route id="right2_mid2" edges="right2 mid2"/>
    <route id="top_mid1" edges="top mid1"/>
    <route id="bottom_mid2" edges="bottom mid2"/>
    <route id="left1_top_r" edges="left1 top_r"/>
    <route id="right2_bottom_r" edges="right2 bottom_r"/>
    <vehicle id="left1_mid1_0" type="standard_car" route="left1_mid1" depart="36" departLane="random" departSpeed="10" />
    <vehicle id="bottom_mid2_1" type="standard_car" route="bottom_mid2" depart="50" departLane="random" departSpeed="10" />
    <vehicle id="right2_mid2_2" type="standard_car" route="right2_mid2" depart="50" departLane="random" departSpeed="10" />
    <vehicle id="left1_top_r_3" type="standard_car" route="left1_top_r" depart="51" departLane="random" departSpeed="10" />
    <vehicle id="top_mid1_4" type="standard_car" route="top_mid1" depart="63" departLane="random" departSpeed="10" />
    <vehicle id="right2_bottom_r_5" type="standard_car" route="right2_bottom_r" depart="72" departLane="random" departSpeed="10" />
    <vehicle id="left1_mid1_6" type="standard_car" route="left1_mid1" depart="73" departLane="random" departSpeed="10" />
    <vehicle id="left1_top_r_7" type="standard_car" route="left1_top_r" depart="79" departLane="random" departSpeed="10" />
    <vehicle id="left1_mid1_8" type="standard_car" route="left1_mid1" depart="83" departLane="random" departSpeed="10" />
    <vehicle id="left1_top_r_9" type="standard_car" route="left1_top_r" depart="89" departLane="random" departSpeed="10" />
    <vehicle id="right2_mid2_10" type="standard_car" route="right2_mid2" depart="104" departLane="random" departSpeed="10" />
    <vehicle id="top_mid1_11" type="standard_car" route="top_mid1" depart="124" departLane="random" departSpeed="10" />
    <vehicle id="left1_mid1_12" type="standard_car" route="left1_mid1" depart="132" departLane="random" departSpeed="10" />
    <vehicle id="left1_mid1_13" type="standard_car" route="left1_mid1" depart="136" departLane="random" departSpeed="10" />
    <vehicle id="left1_mid1_14" type="standard_car" route="left1_mid1" depart="138" departLane="random" departSpeed="10" />
    <vehicle id="right2_bottom_r_15" type="standard_car" route="right2_bottom_r" depart="143" departLane="random" departSpeed="10" />
    <vehicle id="bottom_mid2_16" type="standard_car" route="bottom_mid2" depart="148" departLane="random" departSpeed="10" />
    <vehicle id="right2_mid2_17" type="standard_car" route="right2_mid2" depart="150" departLane="random" departSpeed="10" />
    <vehicle id="right2_mid2_18" type="standard_car" route="right2_mid2" depart="169" departLane="random" departSpeed="10" />
    <vehicle id="right2_mid2_19" type="standard_car" route="right2_mid2" depart="169" departLane="random" departSpeed="10" />
    <vehicle id="top_mid1_20" type="standard_car" route="top_mid1" depart="170" departLane="random" departSpeed="10" />
    <vehicle id="top_mid1_21" type="standard_car" route="top_mid1" depart="172" departLane="random" departSpeed="10" />
    <vehicle id="right2_bottom_r_22" type="standard_car" route="right2_bottom_r" depart="174" departLane="random" departSpeed="10" />
    <vehicle id="left1_mid1_23" type="standard_car" route="left1_mid1" depart="182" departLane="random" departSpeed="10" />
    <vehicle id="left1_mid1_24" type="standard_car" route="left1_mid1" depart="183" departLane="random" departSpeed="10" />
    <vehicle id="right2_mid2_25" type="standard_car" route="right2_mid2" depart="189" departLane="random" departSpeed="10" />
    <vehicle id="left1_mid1_26" type="standard_car" route="left1_mid1" depart="190" departLane="random" departSpeed="10" />
    <vehicle id="left1_mid1_27" type="standard_car" route="left1_mid1" depart="195" departLane="random" departSpeed="10" />
    <vehicle id="right2_mid2_28" type="standard_car" route="right2_mid2" depart="225" departLane="random" departSpeed="10" />
    <vehicle id="left1_mid1_29" type="standard_car" route="left1_mid1" depart="225" departLane="random" departSpeed="10" />
    <vehicle id="left1_mid1_30" type="standard_car" route="left1_mid1" depart="228" departLane="random" departSpeed="10" />
    <vehicle id="right2_mid2_31" type="standard_car" route="right2_mid2" depart="231" departLane="random" departSpeed="10" />
    <vehicle id="right2_mid2_32" type="standard_car" route="right2_mid2" depart="232" departLane="random" departSpeed="10" />
    <vehicle id="left1_mid1_33" type="standard_car" route="left1_mid1" depart="236" departLane="random" departSpeed="10" />
    <vehicle id="right2_mid2_34" type="standard_car" route="right2_mid2" depart="239" departLane="random" departSpeed="10" />
    <vehicle id="top_mid1_35" type="standard_car" route="top_mid1" depart="249" departLane="random" departSpeed="10" />
    <vehicle id="right2_mid2_36" type="standard_car" route="right2_mid2" depart="250" departLane="random" departSpeed="10" />
    <vehicle id="right2_bottom_r_37" type="standard_car" route="right2_bottom_r" depart="251" departLane="random" departSpeed="10" />
    <vehicle id="left1_top_r_38" type="standard_car" route="left1_top_r" depart="254" departLane="random" departSpeed="10" />
    <vehicle id="left1_mid1_39" type="standard_car" route="left1_mid1" depart="254" departLane="random" departSpeed="10" />
    <vehicle id="bottom_mid2_40" type="standard_car" route="bottom_mid2" depart="255" departLane="random" departSpeed="10" />
    <vehicle id="left1_top_r_41" type="standard_car" route="left1_top_r" depart="255" departLane="random" departSpeed="10" />
    <vehicle id="right2_mid2_42" type="standard_car" route="right2_mid2" depart="260" departLane="random" departSpeed="10" />
    <vehicle id="left1_mid1_43" type="standard_car" route="left1_mid1" depart="262" departLane="random" departSpeed="10" />
    <vehicle id="bottom_mid2_44" type="standard_car" route="bottom_mid2" depart="263" departLane="random" departSpeed="10" />
    <vehicle id="right2_bottom_r_45" type="standard_car" route="right2_bottom_r" depart="272" departLane="random" departSpeed="10" />
    <vehicle id="right2_mid2_46" type="standard_car" route="right2_mid2" depart="274" departLane="random" departSpeed="10" />
    <vehicle id="left1_mid1_47" type="standard_car" route="left1_mid1" depart="275" departLane="random" departSpeed="10" />
    <vehicle id="left1_mid1_48" type="standard_car" route="left1_mid1" depart="288" departLane="random" departSpeed="10" />
    <vehicle id="right2_mid2_49" type="standard_car" route="right2_mid2" depart="290" departLane="random" departSpeed="10" />
    <vehicle id="right2_mid2_50" type="standard_car" route="right2_mid2" depart="291" departLane="random" departSpeed="10" />
    <vehicle id="right2_mid2_51" type="standard_car" route="right2_mid2" depart="292" departLane="random" departSpeed="10" />
    <vehicle id="right2_mid2_52" type="standard_car" route="right2_mid2" depart="307" departLane="random" departSpeed="10" />
    <vehicle id="left1_mid1_53" type="standard_car" route="left1_mid1" depart="309" departLane="random" departSpeed="10" />
    <vehicle id="left1_mid1_54" type="standard_car" route="left1_mid1" depart="310" departLane="random" departSpeed="10" />
    <vehicle id="bottom_mid2_55" type="standard_car" route="bottom_mid2" depart="314" departLane="random" departSpeed="10" />
    <vehicle id="left1_mid1_56" type="standard_car" route="left1_mid1" depart="314" departLane="random" departSpeed="10" />
    <vehicle id="left1_top_r_57" type="standard_car" route="left1_top_r" depart="316" departLane="random" departSpeed="10" />
    <vehicle id="bottom_mid2_58" type="standard_car" route="bottom_mid2" depart="319" departLane="random" departSpeed="10" />
    <vehicle id="right2_mid2_59" type="standard_car" route="right2_mid2" depart="321" departLane="random" departSpeed="10" />
    <vehicle id="right2_mid2_60" type="standard_car" route="right2_mid2" depart="331" departLane="random" departSpeed="10" />
    <vehicle id="right2_mid2_61" type="standard_car" route="right2_mid2" depart="336" departLane="random" departSpeed="10" />
    <vehicle id="bottom_mid2_62" type="standard_car" route="bottom_mid2" depart="338" departLane="random" departSpeed="10" />
    <vehicle id="left1_mid1_63" type="standard_car" route="left1_mid1" depart="341" departLane="random" departSpeed="10" />
    <vehicle id="right2_mid2_64" type="standard_car" route="right2_mid2" depart="341" departLane="random" departSpeed="10" />
    <vehicle id="left1_mid1_65" type="standard_car" route="left1_mid1" depart="341" departLane="random" departSpeed="10" />
    <vehicle id="left1_mid1_66" type="standard_car" route="left1_mid1" depart="341" departLane="random" departSpeed="10" />
    <vehicle id="left1_mid1_67" type="standard_car" route="left1_mid1" depart="342" departLane="random" departSpeed="10" />
    <vehicle id="right2_bottom_r_68" type="standard_car" route="right2_bottom_r" depart="342" departLane="random" departSpeed="10" />
    <vehicle id="left1_mid1_69" type="standard_car" route="left1_mid1" depart="343" departLane="random" departSpeed="10" />
    <vehicle id="right2_bottom_r_70" type="standard_car" route="right2_bottom_r" depart="346" departLane="random" departSpeed="10" />
    <vehicle id="top_mid1_71" type="standard_car" route="top_mid1" depart="346" departLane="random" departSpeed="10" />
    <vehicle id="right2_mid2_72" type="standard_car" route="right2_mid2" depart="354" departLane="random" departSpeed="10" />
    <vehicle id="left1_mid1_73" type="standard_car" route="left1_mid1" depart="357" departLane="random" departSpeed="10" />
    <vehicle id="right2_mid2_74" type="standard_car" route="right2_mid2" depart="363" departLane="random" departSpeed="10" />
    <vehicle id="right2_mid2_75" type="standard_car" route="right2_mid2" depart="365" departLane="random" departSpeed="10" />
    <vehicle id="top_mid1_76" type="standard_car" route="top_mid1" depart="366" departLane="random" departSpeed="10" />
    <vehicle id="top_mid1_77" type="standard_car" route="top_mid1" depart="366" departLane="random" departSpeed="10" />
    <vehicle id="bottom_mid2_78" type="standard_car" route="bottom_mid2" depart="369" departLane="random" departSpeed="10" />
    <vehicle id="right2_mid2_79" type="standard_car" route="right2_mid2" depart="372" departLane="random" departSpeed="10" />
    <vehicle id="left1_mid1_80" type="standard_car" route="left1_mid1" depart="372" departLane="random" departSpeed="10" />
    <vehicle id="left1_mid1_81" type="standard_car" route="left1_mid1" depart="374" departLane="random" departSpeed="10" />
    <vehicle id="right2_bottom_r_82" type="standard_car" route="right2_bottom_r" depart="374" departLane="random" departSpeed="10" />
    <vehicle id="right2_bottom_r_83" type="standard_car" route="right2_bottom_r" depart="376" departLane="random" departSpeed="10" />
    <vehicle id="right2_mid2_84" type="standard_car" route="right2_mid2" depart="377" departLane="random" departSpeed="10" />
    <vehicle id="left1_mid1_85" type="standard_car" route="left1_mid1" depart="382" departLane="random" departSpeed="10" />
    <vehicle id="top_mid1_86" type="standard_car" route="top_mid1" depart="383" departLane="random" departSpeed="10" />
    <vehicle id="bottom_mid2_87" type="standard_car" route="bottom_mid2" depart="389" departLane="random" departSpeed="10" />
    <vehicle id="right2_mid2_88" type="standard_car" route="right2_mid2" depart="393" departLane="random" departSpeed="10" />
    <vehicle id="left1_mid1_89" type="standard_car" route="left1_mid1" depart="394" departLane="random" departSpeed="10" />
    <vehicle id="left1_top_r_90" type="standard_car" route="left1_top_r" depart="395" departLane="random" departSpeed="10" />
    <vehicle id="left1_mid1_91" type="standard_car" route="left1_mid1" depart="397" departLane="random" departSpeed="10" />
    <vehicle id="left1_mid1_92" type="standard_car" route="left1_mid1" depart="398" departLane="random" departSpeed="10" />
    <vehicle id="left1_top_r_93" type="standard_car" route="left1_top_r" depart="399" departLane="random" departSpeed="10" />
    <vehicle id="bottom_mid2_94" type="standard_car" route="bottom_mid2" depart="403" departLane="random" departSpeed="10" />
    <vehicle id="left1_mid1_95" type="standard_car" route="left1_mid1" depart="403" departLane="random" departSpeed="10" />
    <vehicle id="top_mid1_96" type="standard_car" route="top_mid1" depart="404" departLane="random" departSpeed="10" />
    <vehicle id="left1_mid1_97" type="standard_car" route="left1_mid1" depart="405" departLane="random" departSpeed="10" />
    <vehicle id="right2_bottom_r_98" type="standard_car" route="right2_bottom_r" depart="405" departLane="random" departSpeed="10" />
    <vehicle id="right2_mid2_99" type="standard_car" route="right2_mid2" depart="406" departLane="random" departSpeed="10" />
    <vehicle id="right2_bottom_r_100" type="standard_car" route="right2_bottom_r" depart="407" departLane="random" departSpeed="10" />
    <vehicle id="right2_mid2_101" type="standard_car" route="right2_mid2" depart="412" departLane="random" departSpeed="10" />
    <vehicle id="bottom_mid2_102" type="standard_car" route="bottom_mid2" depart="414" departLane="random" departSpeed="10" />
    <vehicle id="top_mid1_103" type="standard_car" route="top_mid1" depart="414" departLane="random" departSpeed="10" />
    <vehicle id="right2_mid2_104" type="standard_car" route="right2_mid2" depart="418" departLane="random" departSpeed="10" />
    <vehicle id="right2_mid2_105" type="standard_car" route="right2_mid2" depart="419" departLane="random" departSpeed="10" />
    <vehicle id="left1_mid1_106" type="standard_car" route="left1_mid1" depart="419" departLane="random" departSpeed="10" />
    <vehicle id="right2_mid2_107" type="standard_car" route="right2_mid2" depart="422" departLane="random" departSpeed="10" />
    <vehicle id="left1_mid1_108" type="standard_car" route="left1_mid1" depart="425" departLane="random" departSpeed="10" />
    <vehicle id="left1_mid1_109" type="standard_car" route="left1_mid1" depart="426" departLane="random" departSpeed="10" />
    <vehicle id="top_mid1_110" type="standard_car" route="top_mid1" depart="428" departLane="random" departSpeed="10" />
    <vehicle id="right2_bottom_r_111" type="standard_car" route="right2_bottom_r" depart="434" departLane="random" departSpeed="10" />
    <vehicle id="left1_mid1_112" type="standard_car" route="left1_mid1" depart="435" departLane="random" departSpeed="10" />
    <vehicle id="left1_mid1_113" type="standard_car" route="left1_mid1" depart="438" departLane="random" departSpeed="10" />
    <vehicle id="right2_mid2_114" type="standard_car" route="right2_mid2" depart="446" departLane="random" departSpeed="10" />
    <vehicle id="bottom_mid2_115" type="standard_car" route="bottom_mid2" depart="447" departLane="random" departSpeed="10" />
    <vehicle id="top_mid1_116" type="standard_car" route="top_mid1" depart="451" departLane="random" departSpeed="10" />
    <vehicle id="right2_mid2_117" type="standard_car" route="right2_mid2" depart="451" departLane="random" departSpeed="10" />
    <vehicle id="right2_mid2_118" type="standard_car" route="right2_mid2" depart="451" departLane="random" departSpeed="10" />
    <vehicle id="left1_mid1_119" type="standard_car" route="left1_mid1" depart="453" departLane="random" departSpeed="10" />
    <vehicle id="left1_top_r_120" type="standard_car" route="left1_top_r" depart="454" departLane="random" departSpeed="10" />
    <vehicle id="left1_top_r_121" type="standard_car" route="left1_top_r" depart="456" departLane="random" departSpeed="10" />
    <vehicle id="top_mid1_122" type="standard_car" route="top_mid1" depart="457" departLane="random" departSpeed="10" />
    <vehicle id="left1_mid1_123" type="standard_car" route="left1_mid1" depart="460" departLane="random" departSpeed="10" />
    <vehicle id="left1_mid1_124" type="standard_car" route="left1_mid1" depart="464" departLane="random" departSpeed="10" />
    <vehicle id="right2_bottom_r_125" type="standard_car" route="right2_bottom_r" depart="466" departLane="random" departSpeed="10" />
    <vehicle id="right2_mid2_126" type="standard_car" route="right2_mid2" depart="466" departLane="random" departSpeed="10" />
    <vehicle id="right2_mid2_127" type="standard_car" route="right2_mid2" depart="467" departLane="random" departSpeed="10" />
    <vehicle id="right2_bottom_r_128" type="standard_car" route="right2_bottom_r" depart="470" departLane="random" departSpeed="10" />
    <vehicle id="left1_mid1_129" type="standard_car" route="left1_mid1" depart="470" departLane="random" departSpeed="10" />
    <vehicle id="right2_bottom_r_130" type="standard_car" route="right2_bottom_r" depart="470" departLane="random" departSpeed="10" />
    <vehicle id="top_mid1_131" type="standard_car" route="top_mid1" depart="471" departLane="random" departSpeed="10" />
    <vehicle id="right2_bottom_r_132" type="standard_car" route="right2_bottom_r" depart="472" departLane="random" departSpeed="10" />
    <vehicle id="right2_mid2_133" type="standard_car" route="right2_mid2" depart="473" departLane="random" departSpeed="10" />
    <vehicle id="right2_mid2_134" type="standard_car" route="right2_mid2" depart="476" departLane="random" departSpeed="10" />
    <vehicle id="left1_mid1_135" type="standard_car" route="left1_mid1" depart="476" departLane="random" departSpeed="10" />
    <vehicle id="right2_bottom_r_136" type="standard_car" route="right2_bottom_r" depart="477" departLane="random" departSpeed="10" />
    <vehicle id="right2_bottom_r_137" type="standard_car" route="right2_bottom_r" depart="478" departLane="random" departSpeed="10" />
    <vehicle id="right2_mid2_138" type="standard_car" route="right2_mid2" depart="479" departLane="random" departSpeed="10" />
    <vehicle id="right2_mid2_139" type="standard_car" route="right2_mid2" depart="481" departLane="random" departSpeed="10" />
    <vehicle id="left1_mid1_140" type="standard_car" route="left1_mid1" depart="482" departLane="random" departSpeed="10" />
    <vehicle id="right2_mid2_141" type="standard_car" route="right2_mid2" depart="483" departLane="random" departSpeed="10" />
    <vehicle id="right2_mid2_142" type="standard_car" route="right2_mid2" depart="483" departLane="random" departSpeed="10" />
    <vehicle id="top_mid1_143" type="standard_car" route="top_mid1" depart="485" departLane="random" departSpeed="10" />
    <vehicle id="bottom_mid2_144" type="standard_car" route="bottom_mid2" depart="491" departLane="random" departSpeed="10" />
    <vehicle id="right2_mid2_145" type="standard_car" route="right2_mid2" depart="492" departLane="random" departSpeed="10" />
    <vehicle id="top_mid1_146" type="standard_car" route="top_mid1" depart="493" departLane="random" departSpeed="10" />
    <vehicle id="right2_mid2_147" type="standard_car" route="right2_mid2" depart="494" departLane="random" departSpeed="10" />
    <vehicle id="top_mid1_148" type="standard_car" route="top_mid1" depart="497" departLane="random" departSpeed="10" />
    <vehicle id="right2_mid2_149" type="standard_car" route="right2_mid2" depart="498" departLane="random" departSpeed="10" />
    <vehicle id="top_mid1_150" type="standard_car" route="top_mid1" depart="499" departLane="random" departSpeed="10" />
    <vehicle id="right2_mid2_151" type="standard_car" route="right2_mid2" depart="500" departLane="random" departSpeed="10" />
    <vehicle id="left1_mid1_152" type="standard_car" route="left1_mid1" depart="500" departLane="random" departSpeed="10" />
    <vehicle id="right2_mid2_153" type="standard_car" route="right2_mid2" depart="500" departLane="random" departSpeed="10" />
    <vehicle id="right2_bottom_r_154" type="standard_car" route="right2_bottom_r" depart="501" departLane="random" departSpeed="10" />
    <vehicle id="right2_bottom_r_155" type="standard_car" route="right2_bottom_r" depart="501" departLane="random" departSpeed="10" />
    <vehicle id="left1_mid1_156" type="standard_car" route="left1_mid1" depart="505" departLane="random" departSpeed="10" />
    <vehicle id="bottom_mid2_157" type="standard_car" route="bottom_mid2" depart="506" departLane="random" departSpeed="10" />
    <vehicle id="left1_mid1_158" type="standard_car" route="left1_mid1" depart="506" departLane="random" departSpeed="10" />
    <vehicle id="right2_mid2_159" type="standard_car" route="right2_mid2" depart="510" departLane="random" departSpeed="10" />
    <vehicle id="bottom_mid2_160" type="standard_car" route="bottom_mid2" depart="511" departLane="random" departSpeed="10" />
    <vehicle id="top_mid1_161" type="standard_car" route="top_mid1" depart="511" departLane="random" departSpeed="10" />
    <vehicle id="top_mid1_162" type="standard_car" route="top_mid1" depart="514" departLane="random" departSpeed="10" />
    <vehicle id="right2_mid2_163" type="standard_car" route="right2_mid2" depart="519" departLane="random" departSpeed="10" />
    <vehicle id="right2_mid2_164" type="standard_car" route="right2_mid2" depart="520" departLane="random" departSpeed="10" />
    <vehicle id="left1_mid1_165" type="standard_car" route="left1_mid1" depart="521" departLane="random" departSpeed="10" />
    <vehicle id="left1_top_r_166" type="standard_car" route="left1_top_r" depart="523" departLane="random" departSpeed="10" />
    <vehicle id="right2_mid2_167" type="standard_car" route="right2_mid2" depart="523" departLane="random" departSpeed="10" />
    <vehicle id="left1_mid1_168" type="standard_car" route="left1_mid1" depart="525" departLane="random" departSpeed="10" />
    <vehicle id="right2_bottom_r_169" type="standard_car" route="right2_bottom_r" depart="527" departLane="random" departSpeed="10" />
    <vehicle id="left1_top_r_170" type="standard_car" route="left1_top_r" depart="528" departLane="random" departSpeed="10" />
    <vehicle id="left1_mid1_171" type="standard_car" route="left1_mid1" depart="530" departLane="random" departSpeed="10" />
    <vehicle id="right2_bottom_r_172" type="standard_car" route="right2_bottom_r" depart="534" departLane="random" departSpeed="10" />
    <vehicle id="right2_bottom_r_173" type="standard_car" route="right2_bottom_r" depart="538" departLane="random" departSpeed="10" />
    <vehicle id="right2_mid2_174" type="standard_car" route="right2_mid2" depart="539" departLane="random" departSpeed="10" />
    <vehicle id="top_mid1_175" type="standard_car" route="top_mid1" depart="540" departLane="random" departSpeed="10" />
    <vehicle id="left1_top_r_176" type="standard_car" route="left1_top_r" depart="540" departLane="random" departSpeed="10" />
    <vehicle id="right2_bottom_r_177" type="standard_car" route="right2_bottom_r" depart="540" departLane="random" departSpeed="10" />
    <vehicle id="left1_top_r_178" type="standard_car" route="left1_top_r" depart="543" departLane="random" departSpeed="10" />
    <vehicle id="bottom_mid2_179" type="standard_car" route="bottom_mid2" depart="544" departLane="random" departSpeed="10" />
    <vehicle id="left1_mid1_180" type="standard_car" route="left1_mid1" depart="546" departLane="random" departSpeed="10" />
    <vehicle id="left1_mid1_181" type="standard_car" route="left1_mid1" depart="549" departLane="random" departSpeed="10" />
    <vehicle id="left1_mid1_182" type="standard_car" route="left1_mid1" depart="551" departLane="random" departSpeed="10" />
    <vehicle id="bottom_mid2_183" type="standard_car" route="bottom_mid2" depart="555" departLane="random" departSpeed="10" />
    <vehicle id="right2_mid2_184" type="standard_car" route="right2_mid2" depart="560" departLane="random" departSpeed="10" />
    <vehicle id="left1_mid1_185" type="standard_car" route="left1_mid1" depart="560" departLane="random" departSpeed="10" />
    <vehicle id="right2_bottom_r_186" type="standard_car" route="right2_bottom_r" depart="560" departLane="random" departSpeed="10" />
    <vehicle id="right2_bottom_r_187" type="standard_car" route="right2_bottom_r" depart="563" departLane="random" departSpeed="10" />
    <vehicle id="left1_mid1_188" type="standard_car" route="left1_mid1" depart="564" departLane="random" departSpeed="10" />
    <vehicle id="right2_mid2_189" type="standard_car" route="right2_mid2" depart="564" departLane="random" departSpeed="10" />
    <vehicle id="bottom_mid2_190" type="standard_car" route="bottom_mid2" depart="567" departLane="random" departSpeed="10" />
    <vehicle id="right2_bottom_r_191" type="standard_car" route="right2_bottom_r" depart="568" departLane="random" departSpeed="10" />
    <vehicle id="right2_bottom_r_192" type="standard_car" route="right2_bottom_r" depart="570" departLane="random" departSpeed="10" />
    <vehicle id="top_mid1_193" type="standard_car" route="top_mid1" depart="570" departLane="random" departSpeed="10" />
    <vehicle id="top_mid1_194" type="standard_car" route="top_mid1" depart="571" departLane="random" departSpeed="10" />
    <vehicle id="right2_mid2_195" type="standard_car" route="right2_mid2" depart="571" departLane="random" departSpeed="10" />
    <vehicle id="left1_mid1_196" type="standard_car" route="left1_mid1" depart="572" departLane="random" departSpeed="10" />
    <vehicle id="bottom_mid2_197" type="standard_car" route="bottom_mid2" depart="572" departLane="random" departSpeed="10" />
    <vehicle id="right2_mid2_198" type="standard_car" route="right2_mid2" depart="572" departLane="random" departSpeed="10" />
    <vehicle id="left1_top_r_199" type="standard_car" route="left1_top_r" depart="576" departLane="random" departSpeed="10" />
    <vehicle id="left1_top_r_200" type="standard_car" route="left1_top_r" depart="579" departLane="random" departSpeed="10" />
    <vehicle id="left1_mid1_201" type="standard_car" route="left1_mid1" depart="581" departLane="random" departSpeed="10" />
    <vehicle id="left1_mid1_202" type="standard_car" route="left1_mid1" depart="582" departLane="random" departSpeed="10" />
    <vehicle id="right2_mid2_203" type="standard_car" route="right2_mid2" depart="583" departLane="random" departSpeed="10" />
    <vehicle id="right2_mid2_204" type="standard_car" route="right2_mid2" depart="583" departLane="random" departSpeed="10" />
    <vehicle id="right2_mid2_205" type="standard_car" route="right2_mid2" depart="584" departLane="random" departSpeed="10" />
    <vehicle id="right2_mid2_206" type="standard_car" route="right2_mid2" depart="600" departLane="random" departSpeed="10" />
    <vehicle id="left1_mid1_207" type="standard_car" route="left1_mid1" depart="603" departLane="random" departSpeed="10" />
    <vehicle id="bottom_mid2_208" type="standard_car" route="bottom_mid2" depart="603" departLane="random" departSpeed="10" />
    <vehicle id="top_mid1_209" type="standard_car" route="top_mid1" depart="603" departLane="random" departSpeed="10" />
    <vehicle id="right2_mid2_210" type="standard_car" route="right2_mid2" depart="605" departLane="random" departSpeed="10" />
    <vehicle id="right2_mid2_211" type="standard_car" route="right2_mid2" depart="606" departLane="random" departSpeed="10" />
    <vehicle id="top_mid1_212" type="standard_car" route="top_mid1" depart="607" departLane="random" departSpeed="10" />
    <vehicle id="right2_mid2_213" type="standard_car" route="right2_mid2" depart="610" departLane="random" departSpeed="10" />
    <vehicle id="bottom_mid2_214" type="standard_car" route="bottom_mid2" depart="616" departLane="random" departSpeed="10" />
    <vehicle id="right2_mid2_215" type="standard_car" route="right2_mid2" depart="625" departLane="random" departSpeed="10" />
    <vehicle id="left1_mid1_216" type="standard_car" route="left1_mid1" depart="627" departLane="random" departSpeed="10" />
    <vehicle id="left1_mid1_217" type="standard_car" route="left1_mid1" depart="629" departLane="random" departSpeed="10" />
    <vehicle id="bottom_mid2_218" type="standard_car" route="bottom_mid2" depart="630" departLane="random" departSpeed="10" />
    <vehicle id="bottom_mid2_219" type="standard_car" route="bottom_mid2" depart="632" departLane="random" departSpeed="10" />
    <vehicle id="right2_mid2_220" type="standard_car" route="right2_mid2" depart="633" departLane="random" departSpeed="10" />
    <vehicle id="left1_top_r_221" type="standard_car" route="left1_top_r" depart="637" departLane="random" departSpeed="10" />
    <vehicle id="top_mid1_222" type="standard_car" route="top_mid1" depart="637" departLane="random" departSpeed="10" />
    <vehicle id="top_mid1_223" type="standard_car" route="top_mid1" depart="639" departLane="random" departSpeed="10" />
    <vehicle id="bottom_mid2_224" type="standard_car" route="bottom_mid2" depart="644" departLane="random" departSpeed="10" />
    <vehicle id="left1_mid1_225" type="standard_car" route="left1_mid1" depart="647" departLane="random" departSpeed="10" />
    <vehicle id="right2_bottom_r_226" type="standard_car" route="right2_bottom_r" depart="647" departLane="random" departSpeed="10" />
    <vehicle id="bottom_mid2_227" type="standard_car" route="bottom_mid2" depart="650" departLane="random" departSpeed="10" />
    <vehicle id="left1_mid1_228" type="standard_car" route="left1_mid1" depart="650" departLane="random" departSpeed="10" />
    <vehicle id="left1_mid1_229" type="standard_car" route="left1_mid1" depart="654" departLane="random" departSpeed="10" />
    <vehicle id="right2_mid2_230" type="standard_car" route="right2_mid2" depart="658" departLane="random" departSpeed="10" />
    <vehicle id="left1_top_r_231" type="standard_car" route="left1_top_r" depart="659" departLane="random" departSpeed="10" />
    <vehicle id="left1_mid1_232" type="standard_car" route="left1_mid1" depart="660" departLane="random" departSpeed="10" />