<?xml version="1.0" encoding="UTF-8"?>

<!-- generated on 2025-04-15 03:44:33 by Eclipse SUMO GUI Version 1.22.0
-->

<sumoConfiguration xmlns:xsi="http://www.w3.org/2001/XMLSchema-instance" xsi:noNamespaceSchemaLocation="http://sumo.dlr.de/xsd/sumoConfiguration.xsd">

    <input>
        <net-file value="double_t.net.xml"/>
        <route-files value="double_t.rou.xml"/>
    </input>
    <time>
        <begin value="0"/>
        <end value="100000"/>
    </time>

</sumoConfiguration>
