<routes>
    <vType id="emergency" accel="3.0" decel="6.0" color="1,0,0" maxSpeed="20" sigma="0.5" emergency="true"/>
    <vType id="standard_car" accel="1.0" decel="4.5" length="5.0" minGap="2.5" maxSpeed="25" sigma="0.5"/>
    </routes>
    <vehicle id="f5b_0" type="standard_car" route="f5b" depart="35" departLane="random" departSpeed="10" />
    <vehicle id="a3a_1" type="standard_car" route="a3a" depart="42" departLane="random" departSpeed="10" />
    <vehicle id="b1a_2" type="standard_car" route="b1a" depart="46" departLane="random" departSpeed="10" />
    <vehicle id="e6a_3" type="standard_car" route="e6a" depart="67" departLane="random" departSpeed="10" />
    <vehicle id="b1a_4" type="standard_car" route="b1a" depart="82" departLane="random" departSpeed="10" />
    <vehicle id="e6b_5" type="standard_car" route="e6b" depart="94" departLane="random" departSpeed="10" />
    <vehicle id="e6b_6" type="standard_car" route="e6b" depart="110" departLane="random" departSpeed="10" />
    <vehicle id="b1a_7" type="standard_car" route="b1a" depart="112" departLane="random" departSpeed="10" />
    <vehicle id="e6b_8" type="standard_car" route="e6b" depart="123" departLane="random" departSpeed="10" />
    <vehicle id="e6a_9" type="standard_car" route="e6a" depart="123" departLane="random" departSpeed="10" />
    <vehicle id="e6a_10" type="standard_car" route="e6a" depart="125" departLane="random" departSpeed="10" />
    <vehicle id="b1a_11" type="standard_car" route="b1a" depart="129" departLane="random" departSpeed="10" />
    <vehicle id="e6a_12" type="standard_car" route="e6a" depart="131" departLane="random" departSpeed="10" />
    <vehicle id="a3b_13" type="standard_car" route="a3b" depart="142" departLane="random" departSpeed="10" />
    <vehicle id="e6b_14" type="standard_car" route="e6b" depart="160" departLane="random" departSpeed="10" />
    <vehicle id="e6b_15" type="standard_car" route="e6b" depart="172" departLane="random" departSpeed="10" />
    <vehicle id="f5a_16" type="standard_car" route="f5a" depart="174" departLane="random" departSpeed="10" />
    <vehicle id="e6b_17" type="standard_car" route="e6b" depart="174" departLane="random" departSpeed="10" />
    <vehicle id="b1b_18" type="standard_car" route="b1b" depart="181" departLane="random" departSpeed="10" />
    <vehicle id="f5a_19" type="standard_car" route="f5a" depart="192" departLane="random" departSpeed="10" />
    <vehicle id="e6b_20" type="standard_car" route="e6b" depart="193" departLane="random" departSpeed="10" />
    <vehicle id="e6b_21" type="standard_car" route="e6b" depart="195" departLane="random" departSpeed="10" />
    <vehicle id="b1b_22" type="standard_car" route="b1b" depart="198" departLane="random" departSpeed="10" />
    <vehicle id="b1a_23" type="standard_car" route="b1a" depart="199" departLane="random" departSpeed="10" />
    <vehicle id="f5b_24" type="standard_car" route="f5b" depart="208" departLane="random" departSpeed="10" />
    <vehicle id="e6b_25" type="standard_car" route="e6b" depart="208" departLane="random" departSpeed="10" />
    <vehicle id="e6a_26" type="standard_car" route="e6a" depart="210" departLane="random" departSpeed="10" />
    <vehicle id="e6a_27" type="standard_car" route="e6a" depart="216" departLane="random" departSpeed="10" />
    <vehicle id="e6a_28" type="standard_car" route="e6a" depart="221" departLane="random" departSpeed="10" />
    <vehicle id="e6a_29" type="standard_car" route="e6a" depart="226" departLane="random" departSpeed="10" />
    <vehicle id="a3b_30" type="standard_car" route="a3b" depart="227" departLane="random" departSpeed="10" />
    <vehicle id="e6a_31" type="standard_car" route="e6a" depart="230" departLane="random" departSpeed="10" />
    <vehicle id="f5b_32" type="standard_car" route="f5b" depart="231" departLane="random" departSpeed="10" />
    <vehicle id="a3b_33" type="standard_car" route="a3b" depart="232" departLane="random" departSpeed="10" />
    <vehicle id="e6a_34" type="standard_car" route="e6a" depart="235" departLane="random" departSpeed="10" />
    <vehicle id="f5a_35" type="standard_car" route="f5a" depart="236" departLane="random" departSpeed="10" />
    <vehicle id="f5a_36" type="standard_car" route="f5a" depart="243" departLane="random" departSpeed="10" />
    <vehicle id="f5b_37" type="standard_car" route="f5b" depart="246" departLane="random" departSpeed="10" />
    <vehicle id="a3a_38" type="standard_car" route="a3a" depart="248" departLane="random" departSpeed="10" />
    <vehicle id="f5b_39" type="standard_car" route="f5b" depart="250" departLane="random" departSpeed="10" />
    <vehicle id="e6b_40" type="standard_car" route="e6b" depart="251" departLane="random" departSpeed="10" />
    <vehicle id="e6b_41" type="standard_car" route="e6b" depart="252" departLane="random" departSpeed="10" />
    <vehicle id="e6a_42" type="standard_car" route="e6a" depart="254" departLane="random" departSpeed="10" />
    <vehicle id="a3b_43" type="standard_car" route="a3b" depart="257" departLane="random" departSpeed="10" />
    <vehicle id="e6a_44" type="standard_car" route="e6a" depart="257" departLane="random" departSpeed="10" />
    <vehicle id="e6a_45" type="standard_car" route="e6a" depart="260" departLane="random" departSpeed="10" />
    <vehicle id="a3b_46" type="standard_car" route="a3b" depart="262" departLane="random" departSpeed="10" />
    <vehicle id="f5b_47" type="standard_car" route="f5b" depart="264" departLane="random" departSpeed="10" />
    <vehicle id="b1b_48" type="standard_car" route="b1b" depart="282" departLane="random" departSpeed="10" />
    <vehicle id="f5b_49" type="standard_car" route="f5b" depart="282" departLane="random" departSpeed="10" />
    <vehicle id="e6a_50" type="standard_car" route="e6a" depart="284" departLane="random" departSpeed="10" />
    <vehicle id="e6a_51" type="standard_car" route="e6a" depart="284" departLane="random" departSpeed="10" />
    <vehicle id="b1a_52" type="standard_car" route="b1a" depart="285" departLane="random" departSpeed="10" />
    <vehicle id="e6b_53" type="standard_car" route="e6b" depart="285" departLane="random" departSpeed="10" />
    <vehicle id="e6b_54" type="standard_car" route="e6b" depart="288" departLane="random" departSpeed="10" />
    <vehicle id="e6a_55" type="standard_car" route="e6a" depart="290" departLane="random" departSpeed="10" />
    <vehicle id="f5a_56" type="standard_car" route="f5a" depart="294" departLane="random" departSpeed="10" />
    <vehicle id="f5b_57" type="standard_car" route="f5b" depart="301" departLane="random" departSpeed="10" />
    <vehicle id="e6b_58" type="standard_car" route="e6b" depart="305" departLane="random" departSpeed="10" />
    <vehicle id="e6a_59" type="standard_car" route="e6a" depart="309" departLane="random" departSpeed="10" />
    <vehicle id="e6a_60" type="standard_car" route="e6a" depart="310" departLane="random" departSpeed="10" />
    <vehicle id="b1a_61" type="standard_car" route="b1a" depart="314" departLane="random" departSpeed="10" />
    <vehicle id="a3a_62" type="standard_car" route="a3a" depart="315" departLane="random" departSpeed="10" />
    <vehicle id="e6a_63" type="standard_car" route="e6a" depart="315" departLane="random" departSpeed="10" />
    <vehicle id="e6a_64" type="standard_car" route="e6a" depart="316" departLane="random" departSpeed="10" />
    <vehicle id="a3a_65" type="standard_car" route="a3a" depart="318" departLane="random" departSpeed="10" />
    <vehicle id="a3b_66" type="standard_car" route="a3b" depart="324" departLane="random" departSpeed="10" />
    <vehicle id="a3a_67" type="standard_car" route="a3a" depart="329" departLane="random" departSpeed="10" />
    <vehicle id="e6a_68" type="standard_car" route="e6a" depart="329" departLane="random" departSpeed="10" />
    <vehicle id="b1b_69" type="standard_car" route="b1b" depart="330" departLane="random" departSpeed="10" />
    <vehicle id="e6a_70" type="standard_car" route="e6a" depart="331" departLane="random" departSpeed="10" />
    <vehicle id="e6b_71" type="standard_car" route="e6b" depart="336" departLane="random" departSpeed="10" />
    <vehicle id="b1b_72" type="standard_car" route="b1b" depart="341" departLane="random" departSpeed="10" />
    <vehicle id="b1a_73" type="standard_car" route="b1a" depart="342" departLane="random" departSpeed="10" />
    <vehicle id="b1b_74" type="standard_car" route="b1b" depart="343" departLane="random" departSpeed="10" />
    <vehicle id="e6a_75" type="standard_car" route="e6a" depart="345" departLane="random" departSpeed="10" />
    <vehicle id="f5b_76" type="standard_car" route="f5b" depart="348" departLane="random" departSpeed="10" />
    <vehicle id="b1b_77" type="standard_car" route="b1b" depart="350" departLane="random" departSpeed="10" />
    <vehicle id="f5b_78" type="standard_car" route="f5b" depart="355" departLane="random" departSpeed="10" />
    <vehicle id="e6b_79" type="standard_car" route="e6b" depart="357" departLane="random" departSpeed="10" />
    <vehicle id="f5a_80" type="standard_car" route="f5a" depart="360" departLane="random" departSpeed="10" />
    <vehicle id="e6a_81" type="standard_car" route="e6a" depart="362" departLane="random" departSpeed="10" />
    <vehicle id="b1b_82" type="standard_car" route="b1b" depart="364" departLane="random" departSpeed="10" />
    <vehicle id="e6b_83" type="standard_car" route="e6b" depart="368" departLane="random" departSpeed="10" />
    <vehicle id="b1a_84" type="standard_car" route="b1a" depart="369" departLane="random" departSpeed="10" />
    <vehicle id="emergency_0" type="emergency" route="S_E" depart="370" departLane="random" departSpeed="10" />
    <vehicle id="b1b_85" type="standard_car" route="b1b" depart="375" departLane="random" departSpeed="10" />
    <vehicle id="e6b_86" type="standard_car" route="e6b" depart="375" departLane="random" departSpeed="10" />
    <vehicle id="a3a_87" type="standard_car" route="a3a" depart="375" departLane="random" departSpeed="10" />
    <vehicle id="f5a_88" type="standard_car" route="f5a" depart="376" departLane="random" departSpeed="10" />
    <vehicle id="f5b_89" type="standard_car" route="f5b" depart="377" departLane="random" departSpeed="10" />
    <vehicle id="b1a_90" type="standard_car" route="b1a" depart="377" departLane="random" departSpeed="10" />
    <vehicle id="b1b_91" type="standard_car" route="b1b" depart="382" departLane="random" departSpeed="10" />
    <vehicle id="e6b_92" type="standard_car" route="e6b" depart="383" departLane="random" departSpeed="10" />
    <vehicle id="f5a_93" type="standard_car" route="f5a" depart="384" departLane="random" departSpeed="10" />
    <vehicle id="e6a_94" type="standard_car" route="e6a" depart="384" departLane="random" departSpeed="10" />
    <vehicle id="b1b_95" type="standard_car" route="b1b" depart="385" departLane="random" departSpeed="10" />
    <vehicle id="b1a_96" type="standard_car" route="b1a" depart="388" departLane="random" departSpeed="10" />
    <vehicle id="b1b_97" type="standard_car" route="b1b" depart="391" departLane="random" departSpeed="10" />
    <vehicle id="e6a_98" type="standard_car" route="e6a" depart="394" departLane="random" departSpeed="10" />
    <vehicle id="e6a_99" type="standard_car" route="e6a" depart="402" departLane="random" departSpeed="10" />
    <vehicle id="a3b_100" type="standard_car" route="a3b" depart="405" departLane="random" departSpeed="10" />
    <vehicle id="e6a_101" type="standard_car" route="e6a" depart="406" departLane="random" departSpeed="10" />
    <vehicle id="a3a_102" type="standard_car" route="a3a" depart="412" departLane="random" departSpeed="10" />
    <vehicle id="b1b_103" type="standard_car" route="b1b" depart="412" departLane="random" departSpeed="10" />
    <vehicle id="e6a_104" type="standard_car" route="e6a" depart="412" departLane="random" departSpeed="10" />
    <vehicle id="b1a_105" type="standard_car" route="b1a" depart="422" departLane="random" departSpeed="10" />
    <vehicle id="b1b_106" type="standard_car" route="b1b" depart="422" departLane="random" departSpeed="10" />
    <vehicle id="b1b_107" type="standard_car" route="b1b" depart="423" departLane="random" departSpeed="10" />
    <vehicle id="b1a_108" type="standard_car" route="b1a" depart="425" departLane="random" departSpeed="10" />
    <vehicle id="e6b_109" type="standard_car" route="e6b" depart="430" departLane="random" departSpeed="10" />
    <vehicle id="a3a_110" type="standard_car" route="a3a" depart="435" departLane="random" departSpeed="10" />
    <vehicle id="e6b_111" type="standard_car" route="e6b" depart="436" departLane="random" departSpeed="10" />
    <vehicle id="a3b_112" type="standard_car" route="a3b" depart="440" departLane="random" departSpeed="10" />
    <vehicle id="e6b_113" type="standard_car" route="e6b" depart="440" departLane="random" departSpeed="10" />
    <vehicle id="b1b_114" type="standard_car" route="b1b" depart="441" departLane="random" departSpeed="10" />
    <vehicle id="e6b_115" type="standard_car" route="e6b" depart="442" departLane="random" departSpeed="10" />
    <vehicle id="b1b_116" type="standard_car" route="b1b" depart="443" departLane="random" departSpeed="10" />
    <vehicle id="f5a_117" type="standard_car" route="f5a" depart="444" departLane="random" departSpeed="10" />
    <vehicle id="e6b_118" type="standard_car" route="e6b" depart="445" departLane="random" departSpeed="10" />
    <vehicle id="e6a_119" type="standard_car" route="e6a" depart="447" departLane="random" departSpeed="10" />
    <vehicle id="f5b_120" type="standard_car" route="f5b" depart="448" departLane="random" departSpeed="10" />
    <vehicle id="e6b_121" type="standard_car" route="e6b" depart="448" departLane="random" departSpeed="10" />
    <vehicle id="e6b_122" type="standard_car" route="e6b" depart="449" departLane="random" departSpeed="10" />
    <vehicle id="e6b_123" type="standard_car" route="e6b" depart="449" departLane="random" departSpeed="10" />
    <vehicle id="e6a_124" type="standard_car" route="e6a" depart="452" departLane="random" departSpeed="10" />
    <vehicle id="a3b_125" type="standard_car" route="a3b" depart="458" departLane="random" departSpeed="10" />
    <vehicle id="b1b_126" type="standard_car" route="b1b" depart="458" departLane="random" departSpeed="10" />
    <vehicle id="b1a_127" type="standard_car" route="b1a" depart="458" departLane="random" departSpeed="10" />
    <vehicle id="f5a_128" type="standard_car" route="f5a" depart="460" departLane="random" departSpeed="10" />
    <vehicle id="e6b_129" type="standard_car" route="e6b" depart="461" departLane="random" departSpeed="10" />
    <vehicle id="e6a_130" type="standard_car" route="e6a" depart="463" departLane="random" departSpeed="10" />
    <vehicle id="e6b_131" type="standard_car" route="e6b" depart="463" departLane="random" departSpeed="10" />
    <vehicle id="e6b_132" type="standard_car" route="e6b" depart="467" departLane="random" departSpeed="10" />
    <vehicle id="a3a_133" type="standard_car" route="a3a" depart="468" departLane="random" departSpeed="10" />
    <vehicle id="f5a_134" type="standard_car" route="f5a" depart="469" departLane="random" departSpeed="10" />
    <vehicle id="a3b_135" type="standard_car" route="a3b" depart="471" departLane="random" departSpeed="10" />
    <vehicle id="e6b_136" type="standard_car" route="e6b" depart="471" departLane="random" departSpeed="10" />
    <vehicle id="e6b_137" type="standard_car" route="e6b" depart="473" departLane="random" departSpeed="10" />
    <vehicle id="e6b_138" type="standard_car" route="e6b" depart="475" departLane="random" departSpeed="10" />
    <vehicle id="e6b_139" type="standard_car" route="e6b" depart="478" departLane="random" departSpeed="10" />
    <vehicle id="e6b_140" type="standard_car" route="e6b" depart="478" departLane="random" departSpeed="10" />
    <vehicle id="e6a_141" type="standard_car" route="e6a" depart="479" departLane="random" departSpeed="10" />
    <vehicle id="b1a_142" type="standard_car" route="b1a" depart="480" departLane="random" departSpeed="10" />
    <vehicle id="f5a_143" type="standard_car" route="f5a" depart="481" departLane="random" departSpeed="10" />
    <vehicle id="b1a_144" type="standard_car" route="b1a" depart="482" departLane="random" departSpeed="10" />
    <vehicle id="b1a_145" type="standard_car" route="b1a" depart="482" departLane="random" departSpeed="10" />
    <vehicle id="a3b_146" type="standard_car" route="a3b" depart="485" departLane="random" departSpeed="10" />
    <vehicle id="b1a_147" type="standard_car" route="b1a" depart="488" departLane="random" departSpeed="10" />
    <vehicle id="e6b_148" type="standard_car" route="e6b" depart="489" departLane="random" departSpeed="10" />
    <vehicle id="e6b_149" type="standard_car" route="e6b" depart="494" departLane="random" departSpeed="10" />
    <vehicle id="e6b_150" type="standard_car" route="e6b" depart="498" departLane="random" departSpeed="10" />
    <vehicle id="b1a_151" type="standard_car" route="b1a" depart="500" departLane="random" departSpeed="10" />
    <vehicle id="f5b_152" type="standard_car" route="f5b" depart="504" departLane="random" departSpeed="10" />
    <vehicle id="f5b_153" type="standard_car" route="f5b" depart="504" departLane="random" departSpeed="10" />
    <vehicle id="b1b_154" type="standard_car" route="b1b" depart="505" departLane="random" departSpeed="10" />
    <vehicle id="e6b_155" type="standard_car" route="e6b" depart="508" departLane="random" departSpeed="10" />
    <vehicle id="b1b_156" type="standard_car" route="b1b" depart="509" departLane="random" departSpeed="10" />
    <vehicle id="e6a_157" type="standard_car" route="e6a" depart="513" departLane="random" departSpeed="10" />
    <vehicle id="e6a_158" type="standard_car" route="e6a" depart="514" departLane="random" departSpeed="10" />
    <vehicle id="b1a_159" type="standard_car" route="b1a" depart="518" departLane="random" departSpeed="10" />
    <vehicle id="f5b_160" type="standard_car" route="f5b" depart="521" departLane="random" departSpeed="10" />
    <vehicle id="e6b_161" type="standard_car" route="e6b" depart="522" departLane="random" departSpeed="10" />
    <vehicle id="e6a_162" type="standard_car" route="e6a" depart="523" departLane="random" departSpeed="10" />
    <vehicle id="b1a_163" type="standard_car" route="b1a" depart="523" departLane="random" departSpeed="10" />
    <vehicle id="a3b_164" type="standard_car" route="a3b" depart="524" departLane="random" departSpeed="10" />
    <vehicle id="b1a_165" type="standard_car" route="b1a" depart="531" departLane="random" departSpeed="10" />
    <vehicle id="b1a_166" type="standard_car" route="b1a" depart="531" departLane="random" departSpeed="10" />
    <vehicle id="b1a_167" type="standard_car" route="b1a" depart="532" departLane="random" departSpeed="10" />
    <vehicle id="b1b_168" type="standard_car" route="b1b" depart="532" departLane="random" departSpeed="10" />
    <vehicle id="e6b_169" type="standard_car" route="e6b" depart="534" departLane="random" departSpeed="10" />
    <vehicle id="f5b_170" type="standard_car" route="f5b" depart="538" departLane="random" departSpeed="10" />
    <vehicle id="e6a_171" type="standard_car" route="e6a" depart="539" departLane="random" departSpeed="10" />
    <vehicle id="e6a_172" type="standard_car" route="e6a" depart="543" departLane="random" departSpeed="10" />
    <vehicle id="a3a_173" type="standard_car" route="a3a" depart="551" departLane="random" departSpeed="10" />
    <vehicle id="b1b_174" type="standard_car" route="b1b" depart="552" departLane="random" departSpeed="10" />
    <vehicle id="a3b_175" type="standard_car" route="a3b" depart="556" departLane="random" departSpeed="10" />
    <vehicle id="e6b_176" type="standard_car" route="e6b" depart="561" departLane="random" departSpeed="10" />
    <vehicle id="f5a_177" type="standard_car" route="f5a" depart="562" departLane="random" departSpeed="10" />
    <vehicle id="a3a_178" type="standard_car" route="a3a" depart="565" departLane="random" departSpeed="10" />
    <vehicle id="a3a_179" type="standard_car" route="a3a" depart="566" departLane="random" departSpeed="10" />
    <vehicle id="b1b_180" type="standard_car" route="b1b" depart="572" departLane="random" departSpeed="10" />
    <vehicle id="b1b_181" type="standard_car" route="b1b" depart="573" departLane="random" departSpeed="10" />
    <vehicle id="b1b_182" type="standard_car" route="b1b" depart="574" departLane="random" departSpeed="10" />
    <vehicle id="f5a_183" type="standard_car" route="f5a" depart="575" departLane="random" departSpeed="10" />
    <vehicle id="b1b_184" type="standard_car" route="b1b" depart="576" departLane="random" departSpeed="10" />
    <vehicle id="e6b_185" type="standard_car" route="e6b" depart="576" departLane="random" departSpeed="10" />
    <vehicle id="a3a_186" type="standard_car" route="a3a" depart="577" departLane="random" departSpeed="10" />
    <vehicle id="b1a_187" type="standard_car" route="b1a" depart="577" departLane="random" departSpeed="10" />
    <vehicle id="a3b_188" type="standard_car" route="a3b" depart="578" departLane="random" departSpeed="10" />
    <vehicle id="f5a_189" type="standard_car" route="f5a" depart="580" departLane="random" departSpeed="10" />
    <vehicle id="e6b_190" type="standard_car" route="e6b" depart="580" departLane="random" departSpeed="10" />
    <vehicle id="e6b_191" type="standard_car" route="e6b" depart="583" departLane="random" departSpeed="10" />
    <vehicle id="e6a_192" type="standard_car" route="e6a" depart="583" departLane="random" departSpeed="10" />
    <vehicle id="f5a_193" type="standard_car" route="f5a" depart="584" departLane="random" departSpeed="10" />
    <vehicle id="e6a_194" type="standard_car" route="e6a" depart="585" departLane="random" departSpeed="10" />
    <vehicle id="e6b_195" type="standard_car" route="e6b" depart="585" departLane="random" departSpeed="10" />
    <vehicle id="e6b_196" type="standard_car" route="e6b" depart="585" departLane="random" departSpeed="10" />
    <vehicle id="e6b_197" type="standard_car" route="e6b" depart="585" departLane="random" departSpeed="10" />
    <vehicle id="e6a_198" type="standard_car" route="e6a" depart="588" departLane="random" departSpeed="10" />
    <vehicle id="b1a_199" type="standard_car" route="b1a" depart="588" departLane="random" departSpeed="10" />
    <vehicle id="b1a_200" type="standard_car" route="b1a" depart="590" departLane="random" departSpeed="10" />
    <vehicle id="b1b_201" type="standard_car" route="b1b" depart="590" departLane="random" departSpeed="10" />
    <vehicle id="b1a_202" type="standard_car" route="b1a" depart="591" departLane="random" departSpeed="10" />
    <vehicle id="b1a_203" type="standard_car" route="b1a" depart="591" departLane="random" departSpeed="10" />
    <vehicle id="a3a_204" type="standard_car" route="a3a" depart="592" departLane="random" departSpeed="10" />
    <vehicle id="f5b_205" type="standard_car" route="f5b" depart="592" departLane="random" departSpeed="10" />
    <vehicle id="b1b_206" type="standard_car" route="b1b" depart="594" departLane="random" departSpeed="10" />
    <vehicle id="f5b_207" type="standard_car" route="f5b" depart="595" departLane="random" departSpeed="10" />
    <vehicle id="b1a_208" type="standard_car" route="b1a" depart="596" departLane="random" departSpeed="10" />
    <vehicle id="b1a_209" type="standard_car" route="b1a" depart="596" departLane="random" departSpeed="10" />
    <vehicle id="b1a_210" type="standard_car" route="b1a" depart="598" departLane="random" departSpeed="10" />
    <vehicle id="a3a_211" type="standard_car" route="a3a" depart="599" departLane="random" departSpeed="10" />
    <vehicle id="b1b_212" type="standard_car" route="b1b" depart="599" departLane="random" departSpeed="10" />
    <vehicle id="b1b_213" type="standard_car" route="b1b" depart="600" departLane="random" departSpeed="10" />
    <vehicle id="e6b_214" type="standard_car" route="e6b" depart="602" departLane="random" departSpeed="10" />
    <vehicle id="f5b_215" type="standard_car" route="f5b" depart="604" departLane="random" departSpeed="10" />
    <vehicle id="e6a_216" type="standard_car" route="e6a" depart="605" departLane="random" departSpeed="10" />
    <vehicle id="b1a_217" type="standard_car" route="b1a" depart="606" departLane="random" departSpeed="10" />
    <vehicle id="b1a_218" type="standard_car" route="b1a" depart="606" departLane="random" departSpeed="10" />
    <vehicle id="f5a_219" type="standard_car" route="f5a" depart="606" departLane="random" departSpeed="10" />
    <vehicle id="e6b_220" type="standard_car" route="e6b" depart="607" departLane="random" departSpeed="10" />
    <vehicle id="a3a_221" type="standard_car" route="a3a" depart="607" departLane="random" departSpeed="10" />
    <vehicle id="b1b_222" type="standard_car" route="b1b" depart="609" departLane="random" departSpeed="10" />
    <vehicle id="b1a_223" type="standard_car" route="b1a" depart="611" departLane="random" departSpeed="10" />
    <vehicle id="f5a_224" type="standard_car" route="f5a" depart="613" departLane="random" departSpeed="10" />
    <vehicle id="b1b_225" type="standard_car" route="b1b" depart="614" departLane="random" departSpeed="10" />
    <vehicle id="f5b_226" type="standard_car" route="f5b" depart="614" departLane="random" departSpeed="10" />
    <vehicle id="e6a_227" type="standard_car" route="e6a" depart="616" departLane="random" departSpeed="10" />
    <vehicle id="e6a_228" type="standard_car" route="e6a" depart="616" departLane="random" departSpeed="10" />
    <vehicle id="f5b_229" type="standard_car" route="f5b" depart="616" departLane="random" departSpeed="10" />
    <vehicle id="f5b_230" type="standard_car" route="f5b" depart="619" departLane="random" departSpeed="10" />
    <vehicle id="e6a_231" type="standard_car" route="e6a" depart="621" departLane="random" departSpeed="10" />
    <vehicle id="b1a_232" type="standard_car" route="b1a" depart="621" departLane="random" departSpeed="10" />
    <vehicle id="f5b_233" type="standard_car" route="f5b" depart="621" departLane="random" departSpeed="10" />
    <vehicle id="e6b_234" type="standard_car" route="e6b" depart="622" departLane="random" departSpeed="10" />
    <vehicle id="e6a_235" type="standard_car" route="e6a" depart="623" departLane="random" departSpeed="10" />
    <vehicle id="f5a_236" type="standard_car" route="f5a" depart="626" departLane="random" departSpeed="10" />
    <vehicle id="e6b_237" type="standard_car" route="e6b" depart="631" departLane="random" departSpeed="10" />
    <vehicle id="a3b_238" type="standard_car" route="a3b" depart="631" departLane="random" departSpeed="10" />
    <vehicle id="f5a_239" type="standard_car" route="f5a" depart="631" departLane="random" departSpeed="10" />
    <vehicle id="b1b_240" type="standard_car" route="b1b" depart="631" departLane="random" departSpeed="10" />
    <vehicle id="a3b_241" type="standard_car" route="a3b" depart="632" departLane="random" departSpeed="10" />
    <vehicle id="e6b_242" type="standard_car" route="e6b" depart="632" departLane="random" departSpeed="10" />
    <vehicle id="e6a_243" type="standard_car" route="e6a" depart="633" departLane="random" departSpeed="10" />
    <vehicle id="f5b_244" type="standard_car" route="f5b" depart="634" departLane="random" departSpeed="10" />
    <vehicle id="a3b_245" type="standard_car" route="a3b" depart="636" departLane="random" departSpeed="10" />
    <vehicle id="b1b_246" type="standard_car" route="b1b" depart="636" departLane="random" departSpeed="10" />
    <vehicle id="b1b_247" type="standard_car" route="b1b" depart="636" departLane="random" departSpeed="10" />
    <vehicle id="b1a_248" type="standard_car" route="b1a" depart="636" departLane="random" departSpeed="10" />
    <vehicle id="e6a_249" type="standard_car" route="e6a" depart="636" departLane="random" departSpeed="10" />
    <vehicle id="b1a_250" type="standard_car" route="b1a" depart="637" departLane="random" departSpeed="10" />
    <vehicle id="e6a_251" type="standard_car" route="e6a" depart="638" departLane="random" departSpeed="10" />
    <vehicle id="b1b_252" type="standard_car" route="b1b" depart="639" departLane="random" departSpeed="10" />
    <vehicle id="b1b_253" type="standard_car" route="b1b" depart="639" departLane="random" departSpeed="10" />
    <vehicle id="e6a_254" type="standard_car" route="e6a" depart="640" departLane="random" departSpeed="10" />
    <vehicle id="b1b_255" type="standard_car" route="b1b" depart="640" departLane="random" departSpeed="10" />
    <vehicle id="e6b_256" type="standard_car" route="e6b" depart="640" departLane="random" departSpeed="10" />
    <vehicle id="b1a_257" type="standard_car" route="b1a" depart="644" departLane="random" departSpeed="10" />
    <vehicle id="a3b_258" type="standard_car" route="a3b" depart="644" departLane="random" departSpeed="10" />
    <vehicle id="b1b_259" type="standard_car" route="b1b" depart="644" departLane="random" departSpeed="10" />
    <vehicle id="a3b_260" type="standard_car" route="a3b" depart="650" departLane="random" departSpeed="10" />
    <vehicle id="b1b_261" type="standard_car" route="b1b" depart="654" departLane="random" departSpeed="10" />
    <vehicle id="b1b_262" type="standard_car" route="b1b" depart="658" departLane="random" departSpeed="10" />
    <vehicle id="e6b_263" type="standard_car" route="e6b" depart="662" departLane="random" departSpeed="10" />
    <vehicle id="b1b_264" type="standard_car" route="b1b" depart="664" departLane="random" departSpeed="10" />
    <vehicle id="b1b_265" type="standard_car" route="b1b" depart="665" departLane="random" departSpeed="10" />
    <vehicle id="b1a_266" type="standard_car" route="b1a" depart="666" departLane="random" departSpeed="10" />
    <vehicle id="e6a_267" type="standard_car" route="e6a" depart="669" departLane="random" departSpeed="10" />