<configuration>
    <input>
        <net-file value="ow.net.xml"/>
        <route-files value="ow.rou.xml"/>
	<additional-files value="circle.add.xml" />
    </input>
    <time>
        <begin value="0"/>
        <end value="100000"/>
    </time>

</configuration>