<routes>
<vType id="emergency" accel="3.0" decel="6.0" color="1,0,0" maxSpeed="20" sigma="0.5" emergency="true" />
<vType id="standard_car" accel="1.0" decel="4.5" length="5.0" minGap="2.5" maxSpeed="25" sigma="0.5" />
<route id="-h11" edges="-h11 -h12 -h13"/>
<route id="-h21" edges="-h21 -h22 -h23"/>
<route id="-v11" edges="-v11 -v12 -v13"/>
<route id="-v21" edges="-v21 -v22 -v23"/>
    <vehicle id="-v22_0" type="standard_car" route="-v22" depart="35" departLane="best" departSpeed="10" />
    <vehicle id="-v11_1" type="standard_car" route="-v11" depart="42" departLane="best" departSpeed="10" />
    <vehicle id="-h11_2" type="standard_car" route="-h11" depart="46" departLane="best" departSpeed="10" />
    <vehicle id="-h12_3" type="standard_car" route="-h12" depart="67" departLane="best" departSpeed="10" />
    <vehicle id="-v11_4" type="standard_car" route="-v11" depart="82" departLane="best" departSpeed="10" />
    <vehicle id="-h22_5" type="standard_car" route="-h22" depart="94" departLane="best" departSpeed="10" />
    <vehicle id="-h22_6" type="standard_car" route="-h22" depart="110" departLane="best" departSpeed="10" />
    <vehicle id="-v11_7" type="standard_car" route="-v11" depart="112" departLane="best" departSpeed="10" />
    <vehicle id="-h22_8" type="standard_car" route="-h22" depart="123" departLane="best" departSpeed="10" />
    <vehicle id="-h12_9" type="standard_car" route="-h12" depart="123" departLane="best" departSpeed="10" />
    <vehicle id="-h12_10" type="standard_car" route="-h12" depart="125" departLane="best" departSpeed="10" />
    <vehicle id="-v11_11" type="standard_car" route="-v11" depart="129" departLane="best" departSpeed="10" />
    <vehicle id="-h12_12" type="standard_car" route="-h12" depart="131" departLane="best" departSpeed="10" />
    <vehicle id="-v21_13" type="standard_car" route="-v21" depart="142" departLane="best" departSpeed="10" />
    <vehicle id="-h22_14" type="standard_car" route="-h22" depart="160" departLane="best" departSpeed="10" />
    <vehicle id="-h22_15" type="standard_car" route="-h22" depart="172" departLane="best" departSpeed="10" />
    <vehicle id="-v12_16" type="standard_car" route="-v12" depart="174" departLane="best" departSpeed="10" />
    <vehicle id="-h22_17" type="standard_car" route="-h22" depart="174" departLane="best" departSpeed="10" />
    <vehicle id="-h21_18" type="standard_car" route="-h21" depart="181" departLane="best" departSpeed="10" />
    <vehicle id="-v12_19" type="standard_car" route="-v12" depart="192" departLane="best" departSpeed="10" />
    <vehicle id="-v22_20" type="standard_car" route="-v22" depart="193" departLane="best" departSpeed="10" />
    <vehicle id="-v22_21" type="standard_car" route="-v22" depart="195" departLane="best" departSpeed="10" />
    <vehicle id="-h21_22" type="standard_car" route="-h21" depart="198" departLane="best" departSpeed="10" />
    <vehicle id="-h11_23" type="standard_car" route="-h11" depart="199" departLane="best" departSpeed="10" />
    <vehicle id="-v22_24" type="standard_car" route="-v22" depart="208" departLane="best" departSpeed="10" />
    <vehicle id="-h22_25" type="standard_car" route="-h22" depart="208" departLane="best" departSpeed="10" />
    <vehicle id="-h12_26" type="standard_car" route="-h12" depart="210" departLane="best" departSpeed="10" />
    <vehicle id="-v12_27" type="standard_car" route="-v12" depart="216" departLane="best" departSpeed="10" />
    <vehicle id="-h12_28" type="standard_car" route="-h12" depart="221" departLane="best" departSpeed="10" />
    <vehicle id="-h12_29" type="standard_car" route="-h12" depart="226" departLane="best" departSpeed="10" />
    <vehicle id="-v21_30" type="standard_car" route="-v21" depart="227" departLane="best" departSpeed="10" />
    <vehicle id="-h12_31" type="standard_car" route="-h12" depart="230" departLane="best" departSpeed="10" />
    <vehicle id="-v22_32" type="standard_car" route="-v22" depart="231" departLane="best" departSpeed="10" />
    <vehicle id="-v21_33" type="standard_car" route="-v21" depart="232" departLane="best" departSpeed="10" />
    <vehicle id="-h12_34" type="standard_car" route="-h12" depart="235" departLane="best" departSpeed="10" />
    <vehicle id="-v12_35" type="standard_car" route="-v12" depart="236" departLane="best" departSpeed="10" />
    <vehicle id="-v12_36" type="standard_car" route="-v12" depart="243" departLane="best" departSpeed="10" />
    <vehicle id="-v22_37" type="standard_car" route="-v22" depart="246" departLane="best" departSpeed="10" />
    <vehicle id="-v11_38" type="standard_car" route="-v11" depart="248" departLane="best" departSpeed="10" />
    <vehicle id="-v22_39" type="standard_car" route="-v22" depart="250" departLane="best" departSpeed="10" />
    <vehicle id="-h22_40" type="standard_car" route="-h22" depart="251" departLane="best" departSpeed="10" />
    <vehicle id="-h22_41" type="standard_car" route="-h22" depart="252" departLane="best" departSpeed="10" />
    <vehicle id="-v12_42" type="standard_car" route="-v12" depart="254" departLane="best" departSpeed="10" />
    <vehicle id="-v21_43" type="standard_car" route="-v21" depart="257" departLane="best" departSpeed="10" />
    <vehicle id="-h12_44" type="standard_car" route="-h12" depart="257" departLane="best" departSpeed="10" />
    <vehicle id="-h12_45" type="standard_car" route="-h12" depart="260" departLane="best" departSpeed="10" />
    <vehicle id="-v21_46" type="standard_car" route="-v21" depart="262" departLane="best" departSpeed="10" />
    <vehicle id="-v22_47" type="standard_car" route="-v22" depart="264" departLane="best" departSpeed="10" />
    <vehicle id="-v21_48" type="standard_car" route="-v21" depart="282" departLane="best" departSpeed="10" />
    <vehicle id="-v22_49" type="standard_car" route="-v22" depart="282" departLane="best" departSpeed="10" />
    <vehicle id="-h12_50" type="standard_car" route="-h12" depart="284" departLane="best" departSpeed="10" />
    <vehicle id="-h12_51" type="standard_car" route="-h12" depart="284" departLane="best" departSpeed="10" />
    <vehicle id="-v11_52" type="standard_car" route="-v11" depart="285" departLane="best" departSpeed="10" />
    <vehicle id="-h22_53" type="standard_car" route="-h22" depart="285" departLane="best" departSpeed="10" />
    <vehicle id="-h22_54" type="standard_car" route="-h22" depart="288" departLane="best" departSpeed="10" />
    <vehicle id="-v12_55" type="standard_car" route="-v12" depart="290" departLane="best" departSpeed="10" />
    <vehicle id="-v12_56" type="standard_car" route="-v12" depart="294" departLane="best" departSpeed="10" />
    <vehicle id="-v22_57" type="standard_car" route="-v22" depart="301" departLane="best" departSpeed="10" />
    <vehicle id="-h22_58" type="standard_car" route="-h22" depart="305" departLane="best" departSpeed="10" />
    <vehicle id="-v12_59" type="standard_car" route="-v12" depart="309" departLane="best" departSpeed="10" />
    <vehicle id="-h12_60" type="standard_car" route="-h12" depart="310" departLane="best" departSpeed="10" />
    <vehicle id="-h11_61" type="standard_car" route="-h11" depart="314" departLane="best" departSpeed="10" />
    <vehicle id="-v11_62" type="standard_car" route="-v11" depart="315" departLane="best" departSpeed="10" />
    <vehicle id="-h12_63" type="standard_car" route="-h12" depart="315" departLane="best" departSpeed="10" />
    <vehicle id="-v12_64" type="standard_car" route="-v12" depart="316" departLane="best" departSpeed="10" />
    <vehicle id="-v11_65" type="standard_car" route="-v11" depart="318" departLane="best" departSpeed="10" />
    <vehicle id="-v21_66" type="standard_car" route="-v21" depart="324" departLane="best" departSpeed="10" />
    <vehicle id="-v11_67" type="standard_car" route="-v11" depart="329" departLane="best" departSpeed="10" />
    <vehicle id="-v12_68" type="standard_car" route="-v12" depart="329" departLane="best" departSpeed="10" />
    <vehicle id="-v21_69" type="standard_car" route="-v21" depart="330" departLane="best" departSpeed="10" />
    <vehicle id="-v12_70" type="standard_car" route="-v12" depart="331" departLane="best" departSpeed="10" />
    <vehicle id="-h22_71" type="standard_car" route="-h22" depart="336" departLane="best" departSpeed="10" />
    <vehicle id="-h21_72" type="standard_car" route="-h21" depart="341" departLane="best" departSpeed="10" />
    <vehicle id="-h11_73" type="standard_car" route="-h11" depart="342" departLane="best" departSpeed="10" />
    <vehicle id="-h21_74" type="standard_car" route="-h21" depart="343" departLane="best" departSpeed="10" />
    <vehicle id="-v12_75" type="standard_car" route="-v12" depart="345" departLane="best" departSpeed="10" />
    <vehicle id="-v22_76" type="standard_car" route="-v22" depart="348" departLane="best" departSpeed="10" />
    <vehicle id="-h21_77" type="standard_car" route="-h21" depart="350" departLane="best" departSpeed="10" />
    <vehicle id="-v22_78" type="standard_car" route="-v22" depart="355" departLane="best" departSpeed="10" />
    <vehicle id="-h22_79" type="standard_car" route="-h22" depart="357" departLane="best" departSpeed="10" />
    <vehicle id="-v12_80" type="standard_car" route="-v12" depart="360" departLane="best" departSpeed="10" />
    <vehicle id="-h12_81" type="standard_car" route="-h12" depart="362" departLane="best" departSpeed="10" />
    <vehicle id="-h21_82" type="standard_car" route="-h21" depart="364" departLane="best" departSpeed="10" />
    <vehicle id="-h22_83" type="standard_car" route="-h22" depart="368" departLane="best" departSpeed="10" />
    <vehicle id="-h11_84" type="standard_car" route="-h11" depart="369" departLane="best" departSpeed="10" />
    <vehicle id="emergency_0" type="emergency" route="-v22" depart="370" departLane="random" departSpeed="10" />
    <vehicle id="-h21_85" type="standard_car" route="-h21" depart="375" departLane="best" departSpeed="10" />
    <vehicle id="-h22_86" type="standard_car" route="-h22" depart="375" departLane="best" departSpeed="10" />
    <vehicle id="-v11_87" type="standard_car" route="-v11" depart="375" departLane="best" departSpeed="10" />
    <vehicle id="-v12_88" type="standard_car" route="-v12" depart="376" departLane="best" departSpeed="10" />
    <vehicle id="-v22_89" type="standard_car" route="-v22" depart="377" departLane="best" departSpeed="10" />
    <vehicle id="-h11_90" type="standard_car" route="-h11" depart="377" departLane="best" departSpeed="10" />
    <vehicle id="-h21_91" type="standard_car" route="-h21" depart="382" departLane="best" departSpeed="10" />
    <vehicle id="-h22_92" type="standard_car" route="-h22" depart="383" departLane="best" departSpeed="10" />
    <vehicle id="-v12_93" type="standard_car" route="-v12" depart="384" departLane="best" departSpeed="10" />
    <vehicle id="-v12_94" type="standard_car" route="-v12" depart="384" departLane="best" departSpeed="10" />
    <vehicle id="-h21_95" type="standard_car" route="-h21" depart="385" departLane="best" departSpeed="10" />
    <vehicle id="-v11_96" type="standard_car" route="-v11" depart="388" departLane="best" departSpeed="10" />
    <vehicle id="-v21_97" type="standard_car" route="-v21" depart="391" departLane="best" departSpeed="10" />
    <vehicle id="-h12_98" type="standard_car" route="-h12" depart="394" departLane="best" departSpeed="10" />
    <vehicle id="-h12_99" type="standard_car" route="-h12" depart="402" departLane="best" departSpeed="10" />
    <vehicle id="-v21_100" type="standard_car" route="-v21" depart="405" departLane="best" departSpeed="10" />
    <vehicle id="-h12_101" type="standard_car" route="-h12" depart="406" departLane="best" departSpeed="10" />
    <vehicle id="-v11_102" type="standard_car" route="-v11" depart="412" departLane="best" departSpeed="10" />
    <vehicle id="-h21_103" type="standard_car" route="-h21" depart="412" departLane="best" departSpeed="10" />
    <vehicle id="-v12_104" type="standard_car" route="-v12" depart="412" departLane="best" departSpeed="10" />
    <vehicle id="-h11_105" type="standard_car" route="-h11" depart="422" departLane="best" departSpeed="10" />
    <vehicle id="-h21_106" type="standard_car" route="-h21" depart="422" departLane="best" departSpeed="10" />
    <vehicle id="-h21_107" type="standard_car" route="-h21" depart="423" departLane="best" departSpeed="10" />
    <vehicle id="-v11_108" type="standard_car" route="-v11" depart="425" departLane="best" departSpeed="10" />
    <vehicle id="-v22_109" type="standard_car" route="-v22" depart="430" departLane="best" departSpeed="10" />
    <vehicle id="-v11_110" type="standard_car" route="-v11" depart="435" departLane="best" departSpeed="10" />
    <vehicle id="-v22_111" type="standard_car" route="-v22" depart="436" departLane="best" departSpeed="10" />
    <vehicle id="-v21_112" type="standard_car" route="-v21" depart="440" departLane="best" departSpeed="10" />
    <vehicle id="-h22_113" type="standard_car" route="-h22" depart="440" departLane="best" departSpeed="10" />
    <vehicle id="-v21_114" type="standard_car" route="-v21" depart="441" departLane="best" departSpeed="10" />
    <vehicle id="-v22_115" type="standard_car" route="-v22" depart="442" departLane="best" departSpeed="10" />
    <vehicle id="-h21_116" type="standard_car" route="-h21" depart="443" departLane="best" departSpeed="10" />
    <vehicle id="-v12_117" type="standard_car" route="-v12" depart="444" departLane="best" departSpeed="10" />
    <vehicle id="-h22_118" type="standard_car" route="-h22" depart="445" departLane="best" departSpeed="10" />
    <vehicle id="-h12_119" type="standard_car" route="-h12" depart="447" departLane="best" departSpeed="10" />
    <vehicle id="-v22_120" type="standard_car" route="-v22" depart="448" departLane="best" departSpeed="10" />
    <vehicle id="-h22_121" type="standard_car" route="-h22" depart="448" departLane="best" departSpeed="10" />
    <vehicle id="-h22_122" type="standard_car" route="-h22" depart="449" departLane="best" departSpeed="10" />
    <vehicle id="-h22_123" type="standard_car" route="-h22" depart="449" departLane="best" departSpeed="10" />
    <vehicle id="-v12_124" type="standard_car" route="-v12" depart="452" departLane="best" departSpeed="10" />
    <vehicle id="-v21_125" type="standard_car" route="-v21" depart="458" departLane="best" departSpeed="10" />
    <vehicle id="-v21_126" type="standard_car" route="-v21" depart="458" departLane="best" departSpeed="10" />
    <vehicle id="-h11_127" type="standard_car" route="-h11" depart="458" departLane="best" departSpeed="10" />
    <vehicle id="-v12_128" type="standard_car" route="-v12" depart="460" departLane="best" departSpeed="10" />
    <vehicle id="-h22_129" type="standard_car" route="-h22" depart="461" departLane="best" departSpeed="10" />
    <vehicle id="-v12_130" type="standard_car" route="-v12" depart="463" departLane="best" departSpeed="10" />
    <vehicle id="-v22_131" type="standard_car" route="-v22" depart="463" departLane="best" departSpeed="10" />
    <vehicle id="-h22_132" type="standard_car" route="-h22" depart="467" departLane="best" departSpeed="10" />
    <vehicle id="-v11_133" type="standard_car" route="-v11" depart="468" departLane="best" departSpeed="10" />
    <vehicle id="-v12_134" type="standard_car" route="-v12" depart="469" departLane="best" departSpeed="10" />
    <vehicle id="-v21_135" type="standard_car" route="-v21" depart="471" departLane="best" departSpeed="10" />
    <vehicle id="-v22_136" type="standard_car" route="-v22" depart="471" departLane="best" departSpeed="10" />
    <vehicle id="-h22_137" type="standard_car" route="-h22" depart="473" departLane="best" departSpeed="10" />
    <vehicle id="-v22_138" type="standard_car" route="-v22" depart="475" departLane="best" departSpeed="10" />
    <vehicle id="-h22_139" type="standard_car" route="-h22" depart="478" departLane="best" departSpeed="10" />
    <vehicle id="-v22_140" type="standard_car" route="-v22" depart="478" departLane="best" departSpeed="10" />
    <vehicle id="-v12_141" type="standard_car" route="-v12" depart="479" departLane="best" departSpeed="10" />
    <vehicle id="-v11_142" type="standard_car" route="-v11" depart="480" departLane="best" departSpeed="10" />
    <vehicle id="-v12_143" type="standard_car" route="-v12" depart="481" departLane="best" departSpeed="10" />
    <vehicle id="-h11_144" type="standard_car" route="-h11" depart="482" departLane="best" departSpeed="10" />
    <vehicle id="-h11_145" type="standard_car" route="-h11" depart="482" departLane="best" departSpeed="10" />
    <vehicle id="-v21_146" type="standard_car" route="-v21" depart="485" departLane="best" departSpeed="10" />
    <vehicle id="-h11_147" type="standard_car" route="-h11" depart="488" departLane="best" departSpeed="10" />
    <vehicle id="-h22_148" type="standard_car" route="-h22" depart="489" departLane="best" departSpeed="10" />
    <vehicle id="-h22_149" type="standard_car" route="-h22" depart="494" departLane="best" departSpeed="10" />
    <vehicle id="-h22_150" type="standard_car" route="-h22" depart="498" departLane="best" departSpeed="10" />
    <vehicle id="-h11_151" type="standard_car" route="-h11" depart="500" departLane="best" departSpeed="10" />
    <vehicle id="-v22_152" type="standard_car" route="-v22" depart="504" departLane="best" departSpeed="10" />
    <vehicle id="-v22_153" type="standard_car" route="-v22" depart="504" departLane="best" departSpeed="10" />
    <vehicle id="-h21_154" type="standard_car" route="-h21" depart="505" departLane="best" departSpeed="10" />
    <vehicle id="-h22_155" type="standard_car" route="-h22" depart="508" departLane="best" departSpeed="10" />
    <vehicle id="-h21_156" type="standard_car" route="-h21" depart="509" departLane="best" departSpeed="10" />
    <vehicle id="-h12_157" type="standard_car" route="-h12" depart="513" departLane="best" departSpeed="10" />
    <vehicle id="-h12_158" type="standard_car" route="-h12" depart="514" departLane="best" departSpeed="10" />
    <vehicle id="-h11_159" type="standard_car" route="-h11" depart="518" departLane="best" departSpeed="10" />
    <vehicle id="-v22_160" type="standard_car" route="-v22" depart="521" departLane="best" departSpeed="10" />
    <vehicle id="-h22_161" type="standard_car" route="-h22" depart="522" departLane="best" departSpeed="10" />
    <vehicle id="-h12_162" type="standard_car" route="-h12" depart="523" departLane="best" departSpeed="10" />
    <vehicle id="-h11_163" type="standard_car" route="-h11" depart="523" departLane="best" departSpeed="10" />
    <vehicle id="-v21_164" type="standard_car" route="-v21" depart="524" departLane="best" departSpeed="10" />
    <vehicle id="-h11_165" type="standard_car" route="-h11" depart="531" departLane="best" departSpeed="10" />
    <vehicle id="-v11_166" type="standard_car" route="-v11" depart="531" departLane="best" departSpeed="10" />
    <vehicle id="-v11_167" type="standard_car" route="-v11" depart="532" departLane="best" departSpeed="10" />
    <vehicle id="-v21_168" type="standard_car" route="-v21" depart="532" departLane="best" departSpeed="10" />
    <vehicle id="-v22_169" type="standard_car" route="-v22" depart="534" departLane="best" departSpeed="10" />
    <vehicle id="-v22_170" type="standard_car" route="-v22" depart="538" departLane="best" departSpeed="10" />
    <vehicle id="-h12_171" type="standard_car" route="-h12" depart="539" departLane="best" departSpeed="10" />
    <vehicle id="-v12_172" type="standard_car" route="-v12" depart="543" departLane="best" departSpeed="10" />
    <vehicle id="-v11_173" type="standard_car" route="-v11" depart="551" departLane="best" departSpeed="10" />
    <vehicle id="-v21_174" type="standard_car" route="-v21" depart="552" departLane="best" departSpeed="10" />
    <vehicle id="-v21_175" type="standard_car" route="-v21" depart="556" departLane="best" departSpeed="10" />
    <vehicle id="-h22_176" type="standard_car" route="-h22" depart="561" departLane="best" departSpeed="10" />
    <vehicle id="-v12_177" type="standard_car" route="-v12" depart="562" departLane="best" departSpeed="10" />
    <vehicle id="-v11_178" type="standard_car" route="-v11" depart="565" departLane="best" departSpeed="10" />
    <vehicle id="-v11_179" type="standard_car" route="-v11" depart="566" departLane="best" departSpeed="10" />
    <vehicle id="-h21_180" type="standard_car" route="-h21" depart="572" departLane="best" departSpeed="10" />
    <vehicle id="-v21_181" type="standard_car" route="-v21" depart="573" departLane="best" departSpeed="10" />
    <vehicle id="-h21_182" type="standard_car" route="-h21" depart="574" departLane="best" departSpeed="10" />
    <vehicle id="-v12_183" type="standard_car" route="-v12" depart="575" departLane="best" departSpeed="10" />
    <vehicle id="-h21_184" type="standard_car" route="-h21" depart="576" departLane="best" departSpeed="10" />
    <vehicle id="-v22_185" type="standard_car" route="-v22" depart="576" departLane="best" departSpeed="10" />
    <vehicle id="-v11_186" type="standard_car" route="-v11" depart="577" departLane="best" departSpeed="10" />
    <vehicle id="-h11_187" type="standard_car" route="-h11" depart="577" departLane="best" departSpeed="10" />
    <vehicle id="-v21_188" type="standard_car" route="-v21" depart="578" departLane="best" departSpeed="10" />
    <vehicle id="-v12_189" type="standard_car" route="-v12" depart="580" departLane="best" departSpeed="10" />
    <vehicle id="-v22_190" type="standard_car" route="-v22" depart="580" departLane="best" departSpeed="10" />
    <vehicle id="-h22_191" type="standard_car" route="-h22" depart="583" departLane="best" departSpeed="10" />
    <vehicle id="-h12_192" type="standard_car" route="-h12" depart="583" departLane="best" departSpeed="10" />
    <vehicle id="-v12_193" type="standard_car" route="-v12" depart="584" departLane="best" departSpeed="10" />
    <vehicle id="-h12_194" type="standard_car" route="-h12" depart="585" departLane="best" departSpeed="10" />
    <vehicle id="-h22_195" type="standard_car" route="-h22" depart="585" departLane="best" departSpeed="10" />
    <vehicle id="-h22_196" type="standard_car" route="-h22" depart="585" departLane="best" departSpeed="10" />
    <vehicle id="-h22_197" type="standard_car" route="-h22" depart="585" departLane="best" departSpeed="10" />
    <vehicle id="-h12_198" type="standard_car" route="-h12" depart="588" departLane="best" departSpeed="10" />
    <vehicle id="-h11_199" type="standard_car" route="-h11" depart="588" departLane="best" departSpeed="10" />
    <vehicle id="-v11_200" type="standard_car" route="-v11" depart="590" departLane="best" departSpeed="10" />
    <vehicle id="-h21_201" type="standard_car" route="-h21" depart="590" departLane="best" departSpeed="10" />
    <vehicle id="-h11_202" type="standard_car" route="-h11" depart="591" departLane="best" departSpeed="10" />
    <vehicle id="-v11_203" type="standard_car" route="-v11" depart="591" departLane="best" departSpeed="10" />
    <vehicle id="-v11_204" type="standard_car" route="-v11" depart="592" departLane="best" departSpeed="10" />
    <vehicle id="-v22_205" type="standard_car" route="-v22" depart="592" departLane="best" departSpeed="10" />
    <vehicle id="-v21_206" type="standard_car" route="-v21" depart="594" departLane="best" departSpeed="10" />
    <vehicle id="-v22_207" type="standard_car" route="-v22" depart="595" departLane="best" departSpeed="10" />
    <vehicle id="-v11_208" type="standard_car" route="-v11" depart="596" departLane="best" departSpeed="10" />
    <vehicle id="-h11_209" type="standard_car" route="-h11" depart="596" departLane="best" departSpeed="10" />
    <vehicle id="-h11_210" type="standard_car" route="-h11" depart="598" departLane="best" departSpeed="10" />
    <vehicle id="-v11_211" type="standard_car" route="-v11" depart="599" departLane="best" departSpeed="10" />
    <vehicle id="-h21_212" type="standard_car" route="-h21" depart="599" departLane="best" departSpeed="10" />
    <vehicle id="-h21_213" type="standard_car" route="-h21" depart="600" departLane="best" departSpeed="10" />
    <vehicle id="-h22_214" type="standard_car" route="-h22" depart="602" departLane="best" departSpeed="10" />
    <vehicle id="-v22_215" type="standard_car" route="-v22" depart="604" departLane="best" departSpeed="10" />
    <vehicle id="-v12_216" type="standard_car" route="-v12" depart="605" departLane="best" departSpeed="10" />
    <vehicle id="-h11_217" type="standard_car" route="-h11" depart="606" departLane="best" departSpeed="10" />
    <vehicle id="-v11_218" type="standard_car" route="-v11" depart="606" departLane="best" departSpeed="10" />
    <vehicle id="-v12_219" type="standard_car" route="-v12" depart="606" departLane="best" departSpeed="10" />
    <vehicle id="-v22_220" type="standard_car" route="-v22" depart="607" departLane="best" departSpeed="10" />
    <vehicle id="-v11_221" type="standard_car" route="-v11" depart="607" departLane="best" departSpeed="10" />
    <vehicle id="-h21_222" type="standard_car" route="-h21" depart="609" departLane="best" departSpeed="10" />
    <vehicle id="-h11_223" type="standard_car" route="-h11" depart="611" departLane="best" departSpeed="10" />
    <vehicle id="-v12_224" type="standard_car" route="-v12" depart="613" departLane="best" departSpeed="10" />
    <vehicle id="-h21_225" type="standard_car" route="-h21" depart="614" departLane="best" departSpeed="10" />
    <vehicle id="-v22_226" type="standard_car" route="-v22" depart="614" departLane="best" departSpeed="10" />
    <vehicle id="-h12_227" type="standard_car" route="-h12" depart="616" departLane="best" departSpeed="10" />
    <vehicle id="-v12_228" type="standard_car" route="-v12" depart="616" departLane="best" departSpeed="10" />
    <vehicle id="-v22_229" type="standard_car" route="-v22" depart="616" departLane="best" departSpeed="10" />
    <vehicle id="-v22_230" type="standard_car" route="-v22" depart="619" departLane="best" departSpeed="10" />
    <vehicle id="-h12_231" type="standard_car" route="-h12" depart="621" departLane="best" departSpeed="10" />
    <vehicle id="-h11_232" type="standard_car" route="-h11" depart="621" departLane="best" departSpeed="10" />
    <vehicle id="-v22_233" type="standard_car" route="-v22" depart="621" departLane="best" departSpeed="10" />
    <vehicle id="-h22_234" type="standard_car" route="-h22" depart="622" departLane="best" departSpeed="10" />
    <vehicle id="-v12_235" type="standard_car" route="-v12" depart="623" departLane="best" departSpeed="10" />
    <vehicle id="-v12_236" type="standard_car" route="-v12" depart="626" departLane="best" departSpeed="10" />
    <vehicle id="-v22_237" type="standard_car" route="-v22" depart="631" departLane="best" departSpeed="10" />
    <vehicle id="-v21_238" type="standard_car" route="-v21" depart="631" departLane="best" departSpeed="10" />
    <vehicle id="-v12_239" type="standard_car" route="-v12" depart="631" departLane="best" departSpeed="10" />
    <vehicle id="-h21_240" type="standard_car" route="-h21" depart="631" departLane="best" departSpeed="10" />
    <vehicle id="-v21_241" type="standard_car" route="-v21" depart="632" departLane="best" departSpeed="10" />
    <vehicle id="-h22_242" type="standard_car" route="-h22" depart="632" departLane="best" departSpeed="10" />
    <vehicle id="-h12_243" type="standard_car" route="-h12" depart="633" departLane="best" departSpeed="10" />
    <vehicle id="-v22_244" type="standard_car" route="-v22" depart="634" departLane="best" departSpeed="10" />
    <vehicle id="-v21_245" type="standard_car" route="-v21" depart="636" departLane="best" departSpeed="10" />
    <vehicle id="-h21_246" type="standard_car" route="-h21" depart="636" departLane="best" departSpeed="10" />
    <vehicle id="-h21_247" type="standard_car" route="-h21" depart="636" departLane="best" departSpeed="10" />
    <vehicle id="-h11_248" type="standard_car" route="-h11" depart="636" departLane="best" departSpeed="10" />
    <vehicle id="-h12_249" type="standard_car" route="-h12" depart="636" departLane="best" departSpeed="10" />
    <vehicle id="-h11_250" type="standard_car" route="-h11" depart="637" departLane="best" departSpeed="10" />
    <vehicle id="-v12_251" type="standard_car" route="-v12" depart="638" departLane="best" departSpeed="10" />
    <vehicle id="-v21_252" type="standard_car" route="-v21" depart="639" departLane="best" departSpeed="10" />
    <vehicle id="-h21_253" type="standard_car" route="-h21" depart="639" departLane="best" departSpeed="10" />
    <vehicle id="-h12_254" type="standard_car" route="-h12" depart="640" departLane="best" departSpeed="10" />
    <vehicle id="-v21_255" type="standard_car" route="-v21" depart="640" departLane="best" departSpeed="10" />
    <vehicle id="-h22_256" type="standard_car" route="-h22" depart="640" departLane="best" departSpeed="10" />
    <vehicle id="-h11_257" type="standard_car" route="-h11" depart="644" departLane="best" departSpeed="10" />
    <vehicle id="-v21_258" type="standard_car" route="-v21" depart="644" departLane="best" departSpeed="10" />
    <vehicle id="-v21_259" type="standard_car" route="-v21" depart="644" departLane="best" departSpeed="10" />
    <vehicle id="-v21_260" type="standard_car" route="-v21" depart="650" departLane="best" departSpeed="10" />
    <vehicle id="-h21_261" type="standard_car" route="-h21" depart="654" departLane="best" departSpeed="10" />
    <vehicle id="-h21_262" type="standard_car" route="-h21" depart="658" departLane="best" departSpeed="10" />
    <vehicle id="-h22_263" type="standard_car" route="-h22" depart="662" departLane="best" departSpeed="10" />
    <vehicle id="-h21_264" type="standard_car" route="-h21" depart="664" departLane="best" departSpeed="10" />
    <vehicle id="-h21_265" type="standard_car" route="-h21" depart="665" departLane="best" departSpeed="10" />