<routes>
    <vType id="emergency" accel="3.0" decel="6.0" color="1,0,0" 
           maxSpeed="20" sigma="0.5" emergency="true" />
    <vType id="standard_car" accel="1.0" decel="4.5" length="5.0" 
           minGap="2.5" maxSpeed="25" sigma="0.5" />
    <!-- Define routes appropriate for your grid; update as needed -->
    <route id="W_E" edges="..."/>
    <route id="E_W" edges="..."/>
    <route id="N_E" edges="..."/>
    <route id="N_W" edges="..."/>

    <vehicle id="S_N_0" type="standard_car" route="S_N" depart="38" departLane="random" departSpeed="10" />
    <vehicle id="E_W_1" type="standard_car" route="E_W" depart="53" departLane="random" departSpeed="10" />
    <vehicle id="E_S_2" type="standard_car" route="E_S" depart="54" departLane="random" departSpeed="10" />
    <vehicle id="W_E_3" type="standard_car" route="W_E" depart="57" departLane="random" departSpeed="10" />
    <vehicle id="W_N_4" type="standard_car" route="W_N" depart="84" departLane="random" departSpeed="10" />
    <vehicle id="S_N_5" type="standard_car" route="S_N" depart="98" departLane="random" departSpeed="10" />
    <vehicle id="N_S_6" type="standard_car" route="N_S" depart="99" departLane="random" departSpeed="10" />
    <vehicle id="S_W_7" type="standard_car" route="S_W" depart="100" departLane="random" departSpeed="10" />
    <vehicle id="S_N_8" type="standard_car" route="S_N" depart="100" departLane="random" departSpeed="10" />
    <vehicle id="W_E_9" type="standard_car" route="W_E" depart="131" departLane="random" departSpeed="10" />
    <vehicle id="W_E_10" type="standard_car" route="W_E" depart="141" departLane="random" departSpeed="10" />
    <vehicle id="W_N_11" type="standard_car" route="W_N" depart="142" departLane="random" departSpeed="10" />
    <vehicle id="W_S_12" type="standard_car" route="W_S" depart="143" departLane="random" departSpeed="10" />
    <vehicle id="E_W_13" type="standard_car" route="E_W" depart="148" departLane="random" departSpeed="10" />
    <vehicle id="N_S_14" type="standard_car" route="N_S" depart="155" departLane="random" departSpeed="10" />
    <vehicle id="S_N_15" type="standard_car" route="S_N" depart="171" departLane="random" departSpeed="10" />
    <vehicle id="S_W_16" type="standard_car" route="S_W" depart="177" departLane="random" departSpeed="10" />
    <vehicle id="S_N_17" type="standard_car" route="S_N" depart="181" departLane="random" departSpeed="10" />
    <vehicle id="E_W_18" type="standard_car" route="E_W" depart="185" departLane="random" departSpeed="10" />
    <vehicle id="E_W_19" type="standard_car" route="E_W" depart="197" departLane="random" departSpeed="10" />
    <vehicle id="N_S_20" type="standard_car" route="N_S" depart="209" departLane="random" departSpeed="10" />
    <vehicle id="W_E_21" type="standard_car" route="W_E" depart="218" departLane="random" departSpeed="10" />
    <vehicle id="S_E_22" type="standard_car" route="S_E" depart="219" departLane="random" departSpeed="10" />
    <vehicle id="E_W_23" type="standard_car" route="E_W" depart="228" departLane="random" departSpeed="10" />
    <vehicle id="E_W_24" type="standard_car" route="E_W" depart="232" departLane="random" departSpeed="10" />
    <vehicle id="S_N_25" type="standard_car" route="S_N" depart="239" departLane="random" departSpeed="10" />
    <vehicle id="W_N_26" type="standard_car" route="W_N" depart="246" departLane="random" departSpeed="10" />
    <vehicle id="S_E_27" type="standard_car" route="S_E" depart="247" departLane="random" departSpeed="10" />
    <vehicle id="W_S_28" type="standard_car" route="W_S" depart="249" departLane="random" departSpeed="10" />
    <vehicle id="W_E_29" type="standard_car" route="W_E" depart="258" departLane="random" departSpeed="10" />
    <vehicle id="W_E_30" type="standard_car" route="W_E" depart="260" departLane="random" departSpeed="10" />
    <vehicle id="N_S_31" type="standard_car" route="N_S" depart="262" departLane="random" departSpeed="10" />
    <vehicle id="E_S_32" type="standard_car" route="E_S" depart="264" departLane="random" departSpeed="10" />
    <vehicle id="W_E_33" type="standard_car" route="W_E" depart="265" departLane="random" departSpeed="10" />
    <vehicle id="N_S_34" type="standard_car" route="N_S" depart="265" departLane="random" departSpeed="10" />
    <vehicle id="S_N_35" type="standard_car" route="S_N" depart="268" departLane="random" departSpeed="10" />
    <vehicle id="W_E_36" type="standard_car" route="W_E" depart="272" departLane="random" departSpeed="10" />
    <vehicle id="N_S_37" type="standard_car" route="N_S" depart="275" departLane="random" departSpeed="10" />
    <vehicle id="S_N_38" type="standard_car" route="S_N" depart="277" departLane="random" departSpeed="10" />
    <vehicle id="N_S_39" type="standard_car" route="N_S" depart="279" departLane="random" departSpeed="10" />
    <vehicle id="E_W_40" type="standard_car" route="E_W" depart="283" departLane="random" departSpeed="10" />
    <vehicle id="S_W_41" type="standard_car" route="S_W" depart="296" departLane="random" departSpeed="10" />
    <vehicle id="W_N_42" type="standard_car" route="W_N" depart="298" departLane="random" departSpeed="10" />
    <vehicle id="E_W_43" type="standard_car" route="E_W" depart="300" departLane="random" departSpeed="10" />
    <vehicle id="E_W_44" type="standard_car" route="E_W" depart="309" departLane="random" departSpeed="10" />
    <vehicle id="E_S_45" type="standard_car" route="E_S" depart="313" departLane="random" departSpeed="10" />
    <vehicle id="S_N_46" type="standard_car" route="S_N" depart="314" departLane="random" departSpeed="10" />
    <vehicle id="E_W_47" type="standard_car" route="E_W" depart="318" departLane="random" departSpeed="10" />
    <vehicle id="N_E_48" type="standard_car" route="N_E" depart="319" departLane="random" departSpeed="10" />
    <vehicle id="S_N_49" type="standard_car" route="S_N" depart="319" departLane="random" departSpeed="10" />
    <vehicle id="S_W_50" type="standard_car" route="S_W" depart="320" departLane="random" departSpeed="10" />
    <vehicle id="W_E_51" type="standard_car" route="W_E" depart="322" departLane="random" departSpeed="10" />
    <vehicle id="S_N_52" type="standard_car" route="S_N" depart="324" departLane="random" departSpeed="10" />
    <vehicle id="W_S_53" type="standard_car" route="W_S" depart="326" departLane="random" departSpeed="10" />
    <vehicle id="E_N_54" type="standard_car" route="E_N" depart="334" departLane="random" departSpeed="10" />
    <vehicle id="W_E_55" type="standard_car" route="W_E" depart="335" departLane="random" departSpeed="10" />
    <vehicle id="E_W_56" type="standard_car" route="E_W" depart="335" departLane="random" departSpeed="10" />
    <vehicle id="N_S_57" type="standard_car" route="N_S" depart="337" departLane="random" departSpeed="10" />
    <vehicle id="E_W_58" type="standard_car" route="E_W" depart="342" departLane="random" departSpeed="10" />
    <vehicle id="S_N_59" type="standard_car" route="S_N" depart="344" departLane="random" departSpeed="10" />
    <vehicle id="W_S_60" type="standard_car" route="W_S" depart="346" departLane="random" departSpeed="10" />
    <vehicle id="N_S_61" type="standard_car" route="N_S" depart="349" departLane="random" departSpeed="10" />
    <vehicle id="S_N_62" type="standard_car" route="S_N" depart="353" departLane="random" departSpeed="10" />
    <vehicle id="N_S_63" type="standard_car" route="N_S" depart="357" departLane="random" departSpeed="10" />
    <vehicle id="S_N_64" type="standard_car" route="S_N" depart="360" departLane="random" departSpeed="10" />
    <vehicle id="N_E_65" type="standard_car" route="N_E" depart="363" departLane="random" departSpeed="10" />
    <vehicle id="E_W_66" type="standard_car" route="E_W" depart="364" departLane="random" departSpeed="10" />
    <vehicle id="N_S_67" type="standard_car" route="N_S" depart="364" departLane="random" departSpeed="10" />
    <vehicle id="E_W_68" type="standard_car" route="E_W" depart="365" departLane="random" departSpeed="10" />
    <vehicle id="N_S_69" type="standard_car" route="N_S" depart="365" departLane="random" departSpeed="10" />
    <vehicle id="W_S_70" type="standard_car" route="W_S" depart="369" departLane="random" departSpeed="10" />
    <vehicle id="S_N_71" type="standard_car" route="S_N" depart="371" departLane="random" departSpeed="10" />
    <vehicle id="N_S_72" type="standard_car" route="N_S" depart="372" departLane="random" departSpeed="10" />
    <vehicle id="E_W_73" type="standard_car" route="E_W" depart="377" departLane="random" departSpeed="10" />
    <vehicle id="S_N_74" type="standard_car" route="S_N" depart="378" departLane="random" departSpeed="10" />
    <vehicle id="N_S_75" type="standard_car" route="N_S" depart="379" departLane="random" departSpeed="10" />
    <vehicle id="N_S_76" type="standard_car" route="N_S" depart="380" departLane="random" departSpeed="10" />
    <vehicle id="E_S_77" type="standard_car" route="E_S" depart="380" departLane="random" departSpeed="10" />
    <vehicle id="S_N_78" type="standard_car" route="S_N" depart="383" departLane="random" departSpeed="10" />
    <vehicle id="S_N_79" type="standard_car" route="S_N" depart="385" departLane="random" departSpeed="10" />
    <vehicle id="N_E_80" type="standard_car" route="N_E" depart="385" departLane="random" departSpeed="10" />
    <vehicle id="W_E_81" type="standard_car" route="W_E" depart="386" departLane="random" departSpeed="10" />
    <vehicle id="E_W_82" type="standard_car" route="E_W" depart="387" departLane="random" departSpeed="10" />
    <vehicle id="S_N_83" type="standard_car" route="S_N" depart="388" departLane="random" departSpeed="10" />
    <vehicle id="W_N_84" type="standard_car" route="W_N" depart="391" departLane="random" departSpeed="10" />
    <vehicle id="W_S_85" type="standard_car" route="W_S" depart="391" departLane="random" departSpeed="10" />
    <vehicle id="W_E_86" type="standard_car" route="W_E" depart="392" departLane="random" departSpeed="10" />
    <vehicle id="S_N_87" type="standard_car" route="S_N" depart="398" departLane="random" departSpeed="10" />
    <vehicle id="W_S_88" type="standard_car" route="W_S" depart="399" departLane="random" departSpeed="10" />
    <vehicle id="S_W_89" type="standard_car" route="S_W" depart="401" departLane="random" departSpeed="10" />
    <vehicle id="W_E_90" type="standard_car" route="W_E" depart="402" departLane="random" departSpeed="10" />
    <vehicle id="N_E_91" type="standard_car" route="N_E" depart="403" departLane="random" departSpeed="10" />
    <vehicle id="E_N_92" type="standard_car" route="E_N" depart="403" departLane="random" departSpeed="10" />
    <vehicle id="S_N_93" type="standard_car" route="S_N" depart="406" departLane="random" departSpeed="10" />
    <vehicle id="N_S_94" type="standard_car" route="N_S" depart="409" departLane="random" departSpeed="10" />
    <vehicle id="S_W_95" type="standard_car" route="S_W" depart="410" departLane="random" departSpeed="10" />
    <vehicle id="E_W_96" type="standard_car" route="E_W" depart="411" departLane="random" departSpeed="10" />
    <vehicle id="N_S_97" type="standard_car" route="N_S" depart="412" departLane="random" departSpeed="10" />
    <vehicle id="N_S_98" type="standard_car" route="N_S" depart="412" departLane="random" departSpeed="10" />
    <vehicle id="S_W_99" type="standard_car" route="S_W" depart="418" departLane="random" departSpeed="10" />
    <vehicle id="N_S_100" type="standard_car" route="N_S" depart="426" departLane="random" departSpeed="10" />
    <vehicle id="N_S_101" type="standard_car" route="N_S" depart="427" departLane="random" departSpeed="10" />
    <vehicle id="N_S_102" type="standard_car" route="N_S" depart="432" departLane="random" departSpeed="10" />
    <vehicle id="N_S_103" type="standard_car" route="N_S" depart="432" departLane="random" departSpeed="10" />
    <vehicle id="N_S_104" type="standard_car" route="N_S" depart="437" departLane="random" departSpeed="10" />
    <vehicle id="E_W_105" type="standard_car" route="E_W" depart="437" departLane="random" departSpeed="10" />
    <vehicle id="N_S_106" type="standard_car" route="N_S" depart="439" departLane="random" departSpeed="10" />
    <vehicle id="E_N_107" type="standard_car" route="E_N" depart="441" departLane="random" departSpeed="10" />
    <vehicle id="N_S_108" type="standard_car" route="N_S" depart="443" departLane="random" departSpeed="10" />
    <vehicle id="W_E_109" type="standard_car" route="W_E" depart="443" departLane="random" departSpeed="10" />
    <vehicle id="N_W_110" type="standard_car" route="N_W" depart="445" departLane="random" departSpeed="10" />
    <vehicle id="W_E_111" type="standard_car" route="W_E" depart="445" departLane="random" departSpeed="10" />
    <vehicle id="W_N_112" type="standard_car" route="W_N" depart="446" departLane="random" departSpeed="10" />
    <vehicle id="N_E_113" type="standard_car" route="N_E" depart="446" departLane="random" departSpeed="10" />
    <vehicle id="E_W_114" type="standard_car" route="E_W" depart="446" departLane="random" departSpeed="10" />
    <vehicle id="S_N_115" type="standard_car" route="S_N" depart="447" departLane="random" departSpeed="10" />
    <vehicle id="N_E_116" type="standard_car" route="N_E" depart="449" departLane="random" departSpeed="10" />
    <vehicle id="S_W_117" type="standard_car" route="S_W" depart="451" departLane="random" departSpeed="10" />
    <vehicle id="W_E_118" type="standard_car" route="W_E" depart="453" departLane="random" departSpeed="10" />
    <vehicle id="E_S_119" type="standard_car" route="E_S" depart="454" departLane="random" departSpeed="10" />
    <vehicle id="E_W_120" type="standard_car" route="E_W" depart="456" departLane="random" departSpeed="10" />
    <vehicle id="W_E_121" type="standard_car" route="W_E" depart="457" departLane="random" departSpeed="10" />
    <vehicle id="N_S_122" type="standard_car" route="N_S" depart="458" departLane="random" departSpeed="10" />
    <vehicle id="E_S_123" type="standard_car" route="E_S" depart="458" departLane="random" departSpeed="10" />
    <vehicle id="N_S_124" type="standard_car" route="N_S" depart="460" departLane="random" departSpeed="10" />
    <vehicle id="N_S_125" type="standard_car" route="N_S" depart="461" departLane="random" departSpeed="10" />
    <vehicle id="E_W_126" type="standard_car" route="E_W" depart="461" departLane="random" departSpeed="10" />
    <vehicle id="E_W_127" type="standard_car" route="E_W" depart="463" departLane="random" departSpeed="10" />
    <vehicle id="W_E_128" type="standard_car" route="W_E" depart="464" departLane="random" departSpeed="10" />
    <vehicle id="E_S_129" type="standard_car" route="E_S" depart="465" departLane="random" departSpeed="10" />
    <vehicle id="W_S_130" type="standard_car" route="W_S" depart="465" departLane="random" departSpeed="10" />
    <vehicle id="S_N_131" type="standard_car" route="S_N" depart="466" departLane="random" departSpeed="10" />
    <vehicle id="N_S_132" type="standard_car" route="N_S" depart="467" departLane="random" departSpeed="10" />
    <vehicle id="N_W_133" type="standard_car" route="N_W" depart="469" departLane="random" departSpeed="10" />
    <vehicle id="W_E_134" type="standard_car" route="W_E" depart="477" departLane="random" departSpeed="10" />
    <vehicle id="N_S_135" type="standard_car" route="N_S" depart="479" departLane="random" departSpeed="10" />
    <vehicle id="S_W_136" type="standard_car" route="S_W" depart="479" departLane="random" departSpeed="10" />
    <vehicle id="S_N_137" type="standard_car" route="S_N" depart="479" departLane="random" departSpeed="10" />
    <vehicle id="N_S_138" type="standard_car" route="N_S" depart="482" departLane="random" departSpeed="10" />
    <vehicle id="W_E_139" type="standard_car" route="W_E" depart="483" departLane="random" departSpeed="10" />
    <vehicle id="E_W_140" type="standard_car" route="E_W" depart="485" departLane="random" departSpeed="10" />
    <vehicle id="S_N_141" type="standard_car" route="S_N" depart="488" departLane="random" departSpeed="10" />
    <vehicle id="E_S_142" type="standard_car" route="E_S" depart="489" departLane="random" departSpeed="10" />
    <vehicle id="S_N_143" type="standard_car" route="S_N" depart="489" departLane="random" departSpeed="10" />
    <vehicle id="E_W_144" type="standard_car" route="E_W" depart="493" departLane="random" departSpeed="10" />
    <vehicle id="N_E_145" type="standard_car" route="N_E" depart="493" departLane="random" departSpeed="10" />
    <vehicle id="E_W_146" type="standard_car" route="E_W" depart="493" departLane="random" departSpeed="10" />
    <vehicle id="E_W_147" type="standard_car" route="E_W" depart="494" departLane="random" departSpeed="10" />
    <vehicle id="S_N_148" type="standard_car" route="S_N" depart="495" departLane="random" departSpeed="10" />
    <vehicle id="S_W_149" type="standard_car" route="S_W" depart="496" departLane="random" departSpeed="10" />
    <vehicle id="W_N_150" type="standard_car" route="W_N" depart="498" departLane="random" departSpeed="10" />
    <vehicle id="N_S_151" type="standard_car" route="N_S" depart="498" departLane="random" departSpeed="10" />
    <vehicle id="S_N_152" type="standard_car" route="S_N" depart="498" departLane="random" departSpeed="10" />
    <vehicle id="S_N_153" type="standard_car" route="S_N" depart="499" departLane="random" departSpeed="10" />
    <vehicle id="N_S_154" type="standard_car" route="N_S" depart="499" departLane="random" departSpeed="10" />
    <vehicle id="N_E_155" type="standard_car" route="N_E" depart="501" departLane="random" departSpeed="10" />
    <vehicle id="E_W_156" type="standard_car" route="E_W" depart="502" departLane="random" departSpeed="10" />
    <vehicle id="N_S_157" type="standard_car" route="N_S" depart="504" departLane="random" departSpeed="10" />
    <vehicle id="W_N_158" type="standard_car" route="W_N" depart="510" departLane="random" departSpeed="10" />
    <vehicle id="W_E_159" type="standard_car" route="W_E" depart="510" departLane="random" departSpeed="10" />
    <vehicle id="S_N_160" type="standard_car" route="S_N" depart="511" departLane="random" departSpeed="10" />
    <vehicle id="N_S_161" type="standard_car" route="N_S" depart="511" departLane="random" departSpeed="10" />
    <vehicle id="W_E_162" type="standard_car" route="W_E" depart="512" departLane="random" departSpeed="10" />
    <vehicle id="N_S_163" type="standard_car" route="N_S" depart="513" departLane="random" departSpeed="10" />
    <vehicle id="S_N_164" type="standard_car" route="S_N" depart="515" departLane="random" departSpeed="10" />
    <vehicle id="W_E_165" type="standard_car" route="W_E" depart="516" departLane="random" departSpeed="10" />
    <vehicle id="W_E_166" type="standard_car" route="W_E" depart="521" departLane="random" departSpeed="10" />
    <vehicle id="S_N_167" type="standard_car" route="S_N" depart="522" departLane="random" departSpeed="10" />
    <vehicle id="S_W_168" type="standard_car" route="S_W" depart="525" departLane="random" departSpeed="10" />
    <vehicle id="W_E_169" type="standard_car" route="W_E" depart="525" departLane="random" departSpeed="10" />
    <vehicle id="S_N_170" type="standard_car" route="S_N" depart="526" departLane="random" departSpeed="10" />
    <vehicle id="S_N_171" type="standard_car" route="S_N" depart="527" departLane="random" departSpeed="10" />
    <vehicle id="E_N_172" type="standard_car" route="E_N" depart="529" departLane="random" departSpeed="10" />
    <vehicle id="N_S_173" type="standard_car" route="N_S" depart="529" departLane="random" departSpeed="10" />
    <vehicle id="W_E_174" type="standard_car" route="W_E" depart="530" departLane="random" departSpeed="10" />
    <vehicle id="W_E_175" type="standard_car" route="W_E" depart="535" departLane="random" departSpeed="10" />
    <vehicle id="E_W_176" type="standard_car" route="E_W" depart="537" departLane="random" departSpeed="10" />
    <vehicle id="N_S_177" type="standard_car" route="N_S" depart="538" departLane="random" departSpeed="10" />
    <vehicle id="S_N_178" type="standard_car" route="S_N" depart="541" departLane="random" departSpeed="10" />
    <vehicle id="S_N_179" type="standard_car" route="S_N" depart="542" departLane="random" departSpeed="10" />
    <vehicle id="W_E_180" type="standard_car" route="W_E" depart="542" departLane="random" departSpeed="10" />
    <vehicle id="N_S_181" type="standard_car" route="N_S" depart="542" departLane="random" departSpeed="10" />
    <vehicle id="S_N_182" type="standard_car" route="S_N" depart="543" departLane="random" departSpeed="10" />
    <vehicle id="N_S_183" type="standard_car" route="N_S" depart="546" departLane="random" departSpeed="10" />
    <vehicle id="E_W_184" type="standard_car" route="E_W" depart="546" departLane="random" departSpeed="10" />
    <vehicle id="W_E_185" type="standard_car" route="W_E" depart="549" departLane="random" departSpeed="10" />
    <vehicle id="N_S_186" type="standard_car" route="N_S" depart="550" departLane="random" departSpeed="10" />
    <vehicle id="N_S_187" type="standard_car" route="N_S" depart="551" departLane="random" departSpeed="10" />
    <vehicle id="E_S_188" type="standard_car" route="E_S" depart="555" departLane="random" departSpeed="10" />
    <vehicle id="W_E_189" type="standard_car" route="W_E" depart="556" departLane="random" departSpeed="10" />
    <vehicle id="N_W_190" type="standard_car" route="N_W" depart="556" departLane="random" departSpeed="10" />
    <vehicle id="E_S_191" type="standard_car" route="E_S" depart="556" departLane="random" departSpeed="10" />
    <vehicle id="N_S_192" type="standard_car" route="N_S" depart="560" departLane="random" departSpeed="10" />
    <vehicle id="N_S_193" type="standard_car" route="N_S" depart="566" departLane="random" departSpeed="10" />
    <vehicle id="E_W_194" type="standard_car" route="E_W" depart="567" departLane="random" departSpeed="10" />
    <vehicle id="S_N_195" type="standard_car" route="S_N" depart="572" departLane="random" departSpeed="10" />
    <vehicle id="W_E_196" type="standard_car" route="W_E" depart="576" departLane="random" departSpeed="10" />
    <vehicle id="E_W_197" type="standard_car" route="E_W" depart="580" departLane="random" departSpeed="10" />
    <vehicle id="E_N_198" type="standard_car" route="E_N" depart="581" departLane="random" departSpeed="10" />
    <vehicle id="S_N_199" type="standard_car" route="S_N" depart="582" departLane="random" departSpeed="10" />
    <vehicle id="N_S_200" type="standard_car" route="N_S" depart="582" departLane="random" departSpeed="10" />
    <vehicle id="E_S_201" type="standard_car" route="E_S" depart="584" departLane="random" departSpeed="10" />
    <vehicle id="E_W_202" type="standard_car" route="E_W" depart="584" departLane="random" departSpeed="10" />
    <vehicle id="E_S_203" type="standard_car" route="E_S" depart="585" departLane="random" departSpeed="10" />
    <vehicle id="E_W_204" type="standard_car" route="E_W" depart="586" departLane="random" departSpeed="10" />
    <vehicle id="E_S_205" type="standard_car" route="E_S" depart="586" departLane="random" departSpeed="10" />
    <vehicle id="E_W_206" type="standard_car" route="E_W" depart="588" departLane="random" departSpeed="10" />
    <vehicle id="N_S_207" type="standard_car" route="N_S" depart="589" departLane="random" departSpeed="10" />
    <vehicle id="N_S_208" type="standard_car" route="N_S" depart="593" departLane="random" departSpeed="10" />
    <vehicle id="N_S_209" type="standard_car" route="N_S" depart="595" departLane="random" departSpeed="10" />
    <vehicle id="E_W_210" type="standard_car" route="E_W" depart="595" departLane="random" departSpeed="10" />
    <vehicle id="W_E_211" type="standard_car" route="W_E" depart="598" departLane="random" departSpeed="10" />
    <vehicle id="W_E_212" type="standard_car" route="W_E" depart="598" departLane="random" departSpeed="10" />
    <vehicle id="N_E_213" type="standard_car" route="N_E" depart="601" departLane="random" departSpeed="10" />
    <vehicle id="E_W_214" type="standard_car" route="E_W" depart="605" departLane="random" departSpeed="10" />
    <vehicle id="N_S_215" type="standard_car" route="N_S" depart="608" departLane="random" departSpeed="10" />
    <vehicle id="W_E_216" type="standard_car" route="W_E" depart="608" departLane="random" departSpeed="10" />
    <vehicle id="S_N_217" type="standard_car" route="S_N" depart="609" departLane="random" departSpeed="10" />
    <vehicle id="N_E_218" type="standard_car" route="N_E" depart="609" departLane="random" departSpeed="10" />
    <vehicle id="S_N_219" type="standard_car" route="S_N" depart="610" departLane="random" departSpeed="10" />
    <vehicle id="W_E_220" type="standard_car" route="W_E" depart="614" departLane="random" departSpeed="10" />
    <vehicle id="E_S_221" type="standard_car" route="E_S" depart="617" departLane="random" departSpeed="10" />
    <vehicle id="W_E_222" type="standard_car" route="W_E" depart="618" departLane="random" departSpeed="10" />
    <vehicle id="E_W_223" type="standard_car" route="E_W" depart="620" departLane="random" departSpeed="10" />
    <vehicle id="E_W_224" type="standard_car" route="E_W" depart="621" departLane="random" departSpeed="10" />
    <vehicle id="E_N_225" type="standard_car" route="E_N" depart="621" departLane="random" departSpeed="10" />
    <vehicle id="S_N_226" type="standard_car" route="S_N" depart="622" departLane="random" departSpeed="10" />
    <vehicle id="W_S_227" type="standard_car" route="W_S" depart="625" departLane="random" departSpeed="10" />
    <vehicle id="W_E_228" type="standard_car" route="W_E" depart="627" departLane="random" departSpeed="10" />
    <vehicle id="E_W_229" type="standard_car" route="E_W" depart="628" departLane="random" departSpeed="10" />
    <vehicle id="S_E_230" type="standard_car" route="S_E" depart="630" departLane="random" departSpeed="10" />
    <vehicle id="S_W_231" type="standard_car" route="S_W" depart="630" departLane="random" departSpeed="10" />
    <vehicle id="S_N_232" type="standard_car" route="S_N" depart="631" departLane="random" departSpeed="10" />
    <vehicle id="N_S_233" type="standard_car" route="N_S" depart="633" departLane="random" departSpeed="10" />
    <vehicle id="W_E_234" type="standard_car" route="W_E" depart="633" departLane="random" departSpeed="10" />
    <vehicle id="W_E_235" type="standard_car" route="W_E" depart="634" departLane="random" departSpeed="10" />
    <vehicle id="N_S_236" type="standard_car" route="N_S" depart="635" departLane="random" departSpeed="10" />
    <vehicle id="N_S_237" type="standard_car" route="N_S" depart="636" departLane="random" departSpeed="10" />
    <vehicle id="S_N_238" type="standard_car" route="S_N" depart="636" departLane="random" departSpeed="10" />
    <vehicle id="N_S_239" type="standard_car" route="N_S" depart="639" departLane="random" departSpeed="10" />
    <vehicle id="W_E_240" type="standard_car" route="W_E" depart="639" departLane="random" departSpeed="10" />
    <vehicle id="S_E_241" type="standard_car" route="S_E" depart="639" departLane="random" departSpeed="10" />
    <vehicle id="E_S_242" type="standard_car" route="E_S" depart="641" departLane="random" departSpeed="10" />
    <vehicle id="N_S_243" type="standard_car" route="N_S" depart="642" departLane="random" departSpeed="10" />
    <vehicle id="N_S_244" type="standard_car" route="N_S" depart="646" departLane="random" departSpeed="10" />
    <vehicle id="N_S_245" type="standard_car" route="N_S" depart="646" departLane="random" departSpeed="10" />
    <vehicle id="N_S_246" type="standard_car" route="N_S" depart="647" departLane="random" departSpeed="10" />
    <vehicle id="N_S_247" type="standard_car" route="N_S" depart="647" departLane="random" departSpeed="10" />
    <vehicle id="S_N_248" type="standard_car" route="S_N" depart="648" departLane="random" departSpeed="10" />
    <vehicle id="E_N_249" type="standard_car" route="E_N" depart="649" departLane="random" departSpeed="10" />
    <vehicle id="W_E_250" type="standard_car" route="W_E" depart="652" departLane="random" departSpeed="10" />
    <vehicle id="W_S_251" type="standard_car" route="W_S" depart="653" departLane="random" departSpeed="10" />
    <vehicle id="S_N_252" type="standard_car" route="S_N" depart="653" departLane="random" departSpeed="10" />
    <vehicle id="N_S_253" type="standard_car" route="N_S" depart="653" departLane="random" departSpeed="10" />
    <vehicle id="W_E_254" type="standard_car" route="W_E" depart="655" departLane="random" departSpeed="10" />
    <vehicle id="W_E_255" type="standard_car" route="W_E" depart="656" departLane="random" departSpeed="10" />
    <vehicle id="E_W_256" type="standard_car" route="E_W" depart="658" departLane="random" departSpeed="10" />
    <vehicle id="S_N_257" type="standard_car" route="S_N" depart="659" departLane="random" departSpeed="10" />
    <vehicle id="N_S_258" type="standard_car" route="N_S" depart="665" departLane="random" departSpeed="10" />
    <vehicle id="E_W_259" type="standard_car" route="E_W" depart="666" departLane="random" departSpeed="10" />
    <vehicle id="E_W_260" type="standard_car" route="E_W" depart="669" departLane="random" departSpeed="10" />
    <vehicle id="W_S_261" type="standard_car" route="W_S" depart="669" departLane="random" departSpeed="10" />
    <vehicle id="S_N_262" type="standard_car" route="S_N" depart="669" departLane="random" departSpeed="10" />
    <vehicle id="W_E_263" type="standard_car" route="W_E" depart="672" departLane="random" departSpeed="10" />
    <vehicle id="W_E_264" type="standard_car" route="W_E" depart="677" departLane="random" departSpeed="10" />
    <vehicle id="S_N_265" type="standard_car" route="S_N" depart="678" departLane="random" departSpeed="10" />
    <vehicle id="S_N_266" type="standard_car" route="S_N" depart="680" departLane="random" departSpeed="10" />