<routes>
            <vType id="emergency" accel="3.0" decel="6.0" color="1,0,0" maxSpeed="20" sigma="0.5" emergency="true" />
            <vType id="standard_car" accel="1.0" decel="4.5" length="5.0" minGap="2.5" maxSpeed="25" sigma="0.5" />
            <route id="E_W" edges="2_E2TL 2_TL2W TL2W" />
            <route id="W_E" edges="W2TL TL2E 2_TL2E" />
            <route id="N_S_1" edges="2_N2TL 2_TL2S" />
            <route id="N_S_2" edges="N2TL TL2S" />
            <route id="S_N_1" edges="S2TL TL2N" />
            <route id="S_N_2" edges="2_S2TL 2_TL2N" />
            <route id="N_W" edges="2_N2TL 2_TL2W" />
            <route id="S_E" edges="S2TL TL2E" />
            <route id="E_N" edges="2_E2TL 2_TL2N" />
            <route id="W_S" edges="W2TL TL2E 2_TL2S" />
    <vehicle id="E_W_0" type="standard_car" route="E_W" depart="36" departLane="random" departSpeed="10" />
    <vehicle id="W_E_1" type="standard_car" route="W_E" depart="50" departLane="random" departSpeed="10" />
    <vehicle id="N_S_1_2" type="standard_car" route="N_S_1" depart="50" departLane="random" departSpeed="10" />
    <vehicle id="E_N_3" type="standard_car" route="E_N" depart="51" departLane="random" departSpeed="10" />
    <vehicle id="N_S_2_4" type="standard_car" route="N_S_2" depart="63" departLane="random" departSpeed="10" />
    <vehicle id="S_E_5" type="standard_car" route="S_E" depart="72" departLane="random" departSpeed="10" />
    <vehicle id="W_S_6" type="standard_car" route="W_S" depart="73" departLane="random" departSpeed="10" />
    <vehicle id="S_N_2_7" type="standard_car" route="S_N_2" depart="79" departLane="random" departSpeed="10" />
    <vehicle id="N_W_8" type="standard_car" route="N_W" depart="83" departLane="random" departSpeed="10" />
    <vehicle id="S_N_1_9" type="standard_car" route="S_N_1" depart="89" departLane="random" departSpeed="10" />
    <vehicle id="S_N_1_10" type="standard_car" route="S_N_1" depart="104" departLane="random" departSpeed="10" />
    <vehicle id="E_N_11" type="standard_car" route="E_N" depart="124" departLane="random" departSpeed="10" />
    <vehicle id="N_S_1_12" type="standard_car" route="N_S_1" depart="132" departLane="random" departSpeed="10" />
    <vehicle id="E_W_13" type="standard_car" route="E_W" depart="136" departLane="random" departSpeed="10" />
    <vehicle id="E_W_14" type="standard_car" route="E_W" depart="138" departLane="random" departSpeed="10" />
    <vehicle id="E_W_15" type="standard_car" route="E_W" depart="143" departLane="random" departSpeed="10" />
    <vehicle id="E_N_16" type="standard_car" route="E_N" depart="148" departLane="random" departSpeed="10" />
    <vehicle id="N_S_1_17" type="standard_car" route="N_S_1" depart="150" departLane="random" departSpeed="10" />
    <vehicle id="N_S_2_18" type="standard_car" route="N_S_2" depart="169" departLane="random" departSpeed="10" />
    <vehicle id="S_E_19" type="standard_car" route="S_E" depart="169" departLane="random" departSpeed="10" />
    <vehicle id="E_W_20" type="standard_car" route="E_W" depart="170" departLane="random" departSpeed="10" />
    <vehicle id="S_N_2_21" type="standard_car" route="S_N_2" depart="172" departLane="random" departSpeed="10" />
    <vehicle id="S_N_1_22" type="standard_car" route="S_N_1" depart="174" departLane="random" departSpeed="10" />
    <vehicle id="N_S_1_23" type="standard_car" route="N_S_1" depart="182" departLane="random" departSpeed="10" />
    <vehicle id="W_S_24" type="standard_car" route="W_S" depart="183" departLane="random" departSpeed="10" />
    <vehicle id="E_N_25" type="standard_car" route="E_N" depart="189" departLane="random" departSpeed="10" />
    <vehicle id="N_S_2_26" type="standard_car" route="N_S_2" depart="190" departLane="random" departSpeed="10" />
    <vehicle id="N_W_27" type="standard_car" route="N_W" depart="195" departLane="random" departSpeed="10" />
    <vehicle id="E_W_28" type="standard_car" route="E_W" depart="225" departLane="random" departSpeed="10" />
    <vehicle id="W_S_29" type="standard_car" route="W_S" depart="225" departLane="random" departSpeed="10" />
    <vehicle id="S_N_1_30" type="standard_car" route="S_N_1" depart="228" departLane="random" departSpeed="10" />
    <vehicle id="N_S_2_31" type="standard_car" route="N_S_2" depart="231" departLane="random" departSpeed="10" />
    <vehicle id="N_S_1_32" type="standard_car" route="N_S_1" depart="232" departLane="random" departSpeed="10" />
    <vehicle id="N_S_1_33" type="standard_car" route="N_S_1" depart="236" departLane="random" departSpeed="10" />
    <vehicle id="N_S_2_34" type="standard_car" route="N_S_2" depart="239" departLane="random" departSpeed="10" />
    <vehicle id="S_N_1_35" type="standard_car" route="S_N_1" depart="249" departLane="random" departSpeed="10" />
    <vehicle id="W_E_36" type="standard_car" route="W_E" depart="250" departLane="random" departSpeed="10" />
    <vehicle id="N_W_37" type="standard_car" route="N_W" depart="251" departLane="random" departSpeed="10" />
    <vehicle id="N_S_2_38" type="standard_car" route="N_S_2" depart="254" departLane="random" departSpeed="10" />
    <vehicle id="W_S_39" type="standard_car" route="W_S" depart="254" departLane="random" departSpeed="10" />
    <vehicle id="E_N_40" type="standard_car" route="E_N" depart="255" departLane="random" departSpeed="10" />
    <vehicle id="S_N_1_41" type="standard_car" route="S_N_1" depart="255" departLane="random" departSpeed="10" />
    <vehicle id="S_E_42" type="standard_car" route="S_E" depart="260" departLane="random" departSpeed="10" />
    <vehicle id="W_E_43" type="standard_car" route="W_E" depart="262" departLane="random" departSpeed="10" />
    <vehicle id="W_S_44" type="standard_car" route="W_S" depart="263" departLane="random" departSpeed="10" />
    <vehicle id="W_E_45" type="standard_car" route="W_E" depart="272" departLane="random" departSpeed="10" />
    <vehicle id="S_N_2_46" type="standard_car" route="S_N_2" depart="274" departLane="random" departSpeed="10" />
    <vehicle id="E_W_47" type="standard_car" route="E_W" depart="275" departLane="random" departSpeed="10" />
    <vehicle id="W_E_48" type="standard_car" route="W_E" depart="288" departLane="random" departSpeed="10" />
    <vehicle id="N_S_1_49" type="standard_car" route="N_S_1" depart="290" departLane="random" departSpeed="10" />
    <vehicle id="S_N_2_50" type="standard_car" route="S_N_2" depart="291" departLane="random" departSpeed="10" />
    <vehicle id="N_S_2_51" type="standard_car" route="N_S_2" depart="292" departLane="random" departSpeed="10" />
    <vehicle id="W_E_52" type="standard_car" route="W_E" depart="307" departLane="random" departSpeed="10" />
    <vehicle id="N_S_1_53" type="standard_car" route="N_S_1" depart="309" departLane="random" departSpeed="10" />
    <vehicle id="W_E_54" type="standard_car" route="W_E" depart="310" departLane="random" departSpeed="10" />
    <vehicle id="E_W_55" type="standard_car" route="E_W" depart="314" departLane="random" departSpeed="10" />
    <vehicle id="W_E_56" type="standard_car" route="W_E" depart="314" departLane="random" departSpeed="10" />
    <vehicle id="N_S_1_57" type="standard_car" route="N_S_1" depart="316" departLane="random" departSpeed="10" />
    <vehicle id="N_S_2_58" type="standard_car" route="N_S_2" depart="319" departLane="random" departSpeed="10" />
    <vehicle id="N_S_1_59" type="standard_car" route="N_S_1" depart="321" departLane="random" departSpeed="10" />
    <vehicle id="S_N_2_60" type="standard_car" route="S_N_2" depart="331" departLane="random" departSpeed="10" />
    <vehicle id="S_N_2_61" type="standard_car" route="S_N_2" depart="336" departLane="random" departSpeed="10" />
    <vehicle id="N_W_62" type="standard_car" route="N_W" depart="338" departLane="random" departSpeed="10" />
    <vehicle id="E_W_63" type="standard_car" route="E_W" depart="341" departLane="random" departSpeed="10" />
    <vehicle id="W_S_64" type="standard_car" route="W_S" depart="341" departLane="random" departSpeed="10" />
    <vehicle id="S_E_65" type="standard_car" route="S_E" depart="341" departLane="random" departSpeed="10" />
    <vehicle id="W_S_66" type="standard_car" route="W_S" depart="341" departLane="random" departSpeed="10" />
    <vehicle id="S_N_2_67" type="standard_car" route="S_N_2" depart="342" departLane="random" departSpeed="10" />
    <vehicle id="W_S_68" type="standard_car" route="W_S" depart="342" departLane="random" departSpeed="10" />
    <vehicle id="N_W_69" type="standard_car" route="N_W" depart="343" departLane="random" departSpeed="10" />
    <vehicle id="S_N_1_70" type="standard_car" route="S_N_1" depart="346" departLane="random" departSpeed="10" />
    <vehicle id="N_W_71" type="standard_car" route="N_W" depart="346" departLane="random" departSpeed="10" />
    <vehicle id="N_S_2_72" type="standard_car" route="N_S_2" depart="354" departLane="random" departSpeed="10" />
    <vehicle id="N_S_1_73" type="standard_car" route="N_S_1" depart="357" departLane="random" departSpeed="10" />
    <vehicle id="N_S_2_74" type="standard_car" route="N_S_2" depart="363" departLane="random" departSpeed="10" />
    <vehicle id="S_N_1_75" type="standard_car" route="S_N_1" depart="365" departLane="random" departSpeed="10" />
    <vehicle id="S_E_76" type="standard_car" route="S_E" depart="366" departLane="random" departSpeed="10" />
    <vehicle id="W_E_77" type="standard_car" route="W_E" depart="366" departLane="random" departSpeed="10" />
    <vehicle id="E_W_78" type="standard_car" route="E_W" depart="369" departLane="random" departSpeed="10" />
    <vehicle id="S_N_1_79" type="standard_car" route="S_N_1" depart="372" departLane="random" departSpeed="10" />
    <vehicle id="W_S_80" type="standard_car" route="W_S" depart="372" departLane="random" departSpeed="10" />
    <vehicle id="W_S_81" type="standard_car" route="W_S" depart="374" departLane="random" departSpeed="10" />
    <vehicle id="W_E_82" type="standard_car" route="W_E" depart="374" departLane="random" departSpeed="10" />
    <vehicle id="E_W_83" type="standard_car" route="E_W" depart="376" departLane="random" departSpeed="10" />
    <vehicle id="N_W_84" type="standard_car" route="N_W" depart="377" departLane="random" departSpeed="10" />
    <vehicle id="S_E_85" type="standard_car" route="S_E" depart="382" departLane="random" departSpeed="10" />
    <vehicle id="W_E_86" type="standard_car" route="W_E" depart="383" departLane="random" departSpeed="10" />
    <vehicle id="E_W_87" type="standard_car" route="E_W" depart="389" departLane="random" departSpeed="10" />
    <vehicle id="E_N_88" type="standard_car" route="E_N" depart="393" departLane="random" departSpeed="10" />
    <vehicle id="S_N_1_89" type="standard_car" route="S_N_1" depart="394" departLane="random" departSpeed="10" />
    <vehicle id="N_S_2_90" type="standard_car" route="N_S_2" depart="395" departLane="random" departSpeed="10" />
    <vehicle id="E_N_91" type="standard_car" route="E_N" depart="397" departLane="random" departSpeed="10" />
    <vehicle id="S_N_1_92" type="standard_car" route="S_N_1" depart="398" departLane="random" departSpeed="10" />
    <vehicle id="E_W_93" type="standard_car" route="E_W" depart="399" departLane="random" departSpeed="10" />
    <vehicle id="N_S_2_94" type="standard_car" route="N_S_2" depart="403" departLane="random" departSpeed="10" />
    <vehicle id="W_E_95" type="standard_car" route="W_E" depart="403" departLane="random" departSpeed="10" />
    <vehicle id="W_S_96" type="standard_car" route="W_S" depart="404" departLane="random" departSpeed="10" />
    <vehicle id="S_E_97" type="standard_car" route="S_E" depart="405" departLane="random" departSpeed="10" />
    <vehicle id="E_W_98" type="standard_car" route="E_W" depart="405" departLane="random" departSpeed="10" />
    <vehicle id="W_S_99" type="standard_car" route="W_S" depart="406" departLane="random" departSpeed="10" />
    <vehicle id="N_S_2_100" type="standard_car" route="N_S_2" depart="407" departLane="random" departSpeed="10" />
    <vehicle id="W_S_101" type="standard_car" route="W_S" depart="412" departLane="random" departSpeed="10" />
    <vehicle id="N_S_1_102" type="standard_car" route="N_S_1" depart="414" departLane="random" departSpeed="10" />
    <vehicle id="S_E_103" type="standard_car" route="S_E" depart="414" departLane="random" departSpeed="10" />
    <vehicle id="S_E_104" type="standard_car" route="S_E" depart="418" departLane="random" departSpeed="10" />
    <vehicle id="N_S_2_105" type="standard_car" route="N_S_2" depart="419" departLane="random" departSpeed="10" />
    <vehicle id="W_S_106" type="standard_car" route="W_S" depart="419" departLane="random" departSpeed="10" />
    <vehicle id="N_S_1_107" type="standard_car" route="N_S_1" depart="422" departLane="random" departSpeed="10" />
    <vehicle id="W_E_108" type="standard_car" route="W_E" depart="425" departLane="random" departSpeed="10" />
    <vehicle id="N_S_1_109" type="standard_car" route="N_S_1" depart="426" departLane="random" departSpeed="10" />
    <vehicle id="S_N_1_110" type="standard_car" route="S_N_1" depart="428" departLane="random" departSpeed="10" />
    <vehicle id="S_N_1_111" type="standard_car" route="S_N_1" depart="434" departLane="random" departSpeed="10" />
    <vehicle id="N_S_1_112" type="standard_car" route="N_S_1" depart="435" departLane="random" departSpeed="10" />
    <vehicle id="W_E_113" type="standard_car" route="W_E" depart="438" departLane="random" departSpeed="10" />
    <vehicle id="E_W_114" type="standard_car" route="E_W" depart="446" departLane="random" departSpeed="10" />
    <vehicle id="W_S_115" type="standard_car" route="W_S" depart="447" departLane="random" departSpeed="10" />
    <vehicle id="S_N_2_116" type="standard_car" route="S_N_2" depart="451" departLane="random" departSpeed="10" />
    <vehicle id="W_S_117" type="standard_car" route="W_S" depart="451" departLane="random" departSpeed="10" />
    <vehicle id="E_N_118" type="standard_car" route="E_N" depart="451" departLane="random" departSpeed="10" />
    <vehicle id="S_N_1_119" type="standard_car" route="S_N_1" depart="453" departLane="random" departSpeed="10" />
    <vehicle id="S_N_1_120" type="standard_car" route="S_N_1" depart="454" departLane="random" departSpeed="10" />
    <vehicle id="N_S_2_121" type="standard_car" route="N_S_2" depart="456" departLane="random" departSpeed="10" />
    <vehicle id="N_S_2_122" type="standard_car" route="N_S_2" depart="457" departLane="random" departSpeed="10" />
    <vehicle id="W_E_123" type="standard_car" route="W_E" depart="460" departLane="random" departSpeed="10" />
    <vehicle id="N_S_1_124" type="standard_car" route="N_S_1" depart="464" departLane="random" departSpeed="10" />
    <vehicle id="W_E_125" type="standard_car" route="W_E" depart="466" departLane="random" departSpeed="10" />
    <vehicle id="E_W_126" type="standard_car" route="E_W" depart="466" departLane="random" departSpeed="10" />
    <vehicle id="N_S_2_127" type="standard_car" route="N_S_2" depart="467" departLane="random" departSpeed="10" />
    <vehicle id="N_S_2_128" type="standard_car" route="N_S_2" depart="470" departLane="random" departSpeed="10" />
    <vehicle id="N_W_129" type="standard_car" route="N_W" depart="470" departLane="random" departSpeed="10" />
    <vehicle id="S_E_130" type="standard_car" route="S_E" depart="470" departLane="random" departSpeed="10" />
    <vehicle id="N_S_2_131" type="standard_car" route="N_S_2" depart="471" departLane="random" departSpeed="10" />
    <vehicle id="W_S_132" type="standard_car" route="W_S" depart="472" departLane="random" departSpeed="10" />
    <vehicle id="S_N_2_133" type="standard_car" route="S_N_2" depart="473" departLane="random" departSpeed="10" />
    <vehicle id="W_E_134" type="standard_car" route="W_E" depart="476" departLane="random" departSpeed="10" />
    <vehicle id="N_W_135" type="standard_car" route="N_W" depart="476" departLane="random" departSpeed="10" />
    <vehicle id="N_S_2_136" type="standard_car" route="N_S_2" depart="477" departLane="random" departSpeed="10" />
    <vehicle id="N_S_2_137" type="standard_car" route="N_S_2" depart="478" departLane="random" departSpeed="10" />
    <vehicle id="S_E_138" type="standard_car" route="S_E" depart="479" departLane="random" departSpeed="10" />
    <vehicle id="N_S_1_139" type="standard_car" route="N_S_1" depart="481" departLane="random" departSpeed="10" />
    <vehicle id="W_S_140" type="standard_car" route="W_S" depart="482" departLane="random" departSpeed="10" />
    <vehicle id="S_N_1_141" type="standard_car" route="S_N_1" depart="483" departLane="random" departSpeed="10" />
    <vehicle id="N_S_1_142" type="standard_car" route="N_S_1" depart="483" departLane="random" departSpeed="10" />
    <vehicle id="N_W_143" type="standard_car" route="N_W" depart="485" departLane="random" departSpeed="10" />
    <vehicle id="W_S_144" type="standard_car" route="W_S" depart="491" departLane="random" departSpeed="10" />
    <vehicle id="S_E_145" type="standard_car" route="S_E" depart="492" departLane="random" departSpeed="10" />
    <vehicle id="E_W_146" type="standard_car" route="E_W" depart="493" departLane="random" departSpeed="10" />
    <vehicle id="W_E_147" type="standard_car" route="W_E" depart="494" departLane="random" departSpeed="10" />
    <vehicle id="W_S_148" type="standard_car" route="W_S" depart="497" departLane="random" departSpeed="10" />
    <vehicle id="W_S_149" type="standard_car" route="W_S" depart="498" departLane="random" departSpeed="10" />
    <vehicle id="S_N_2_150" type="standard_car" route="S_N_2" depart="499" departLane="random" departSpeed="10" />
    <vehicle id="N_S_2_151" type="standard_car" route="N_S_2" depart="500" departLane="random" departSpeed="10" />
    <vehicle id="N_S_1_152" type="standard_car" route="N_S_1" depart="500" departLane="random" departSpeed="10" />
    <vehicle id="N_W_153" type="standard_car" route="N_W" depart="500" departLane="random" departSpeed="10" />
    <vehicle id="W_E_154" type="standard_car" route="W_E" depart="501" departLane="random" departSpeed="10" />
    <vehicle id="S_N_2_155" type="standard_car" route="S_N_2" depart="501" departLane="random" departSpeed="10" />
    <vehicle id="E_N_156" type="standard_car" route="E_N" depart="505" departLane="random" departSpeed="10" />
    <vehicle id="N_W_157" type="standard_car" route="N_W" depart="506" departLane="random" departSpeed="10" />
    <vehicle id="N_S_2_158" type="standard_car" route="N_S_2" depart="506" departLane="random" departSpeed="10" />
    <vehicle id="N_S_1_159" type="standard_car" route="N_S_1" depart="510" departLane="random" departSpeed="10" />
    <vehicle id="S_N_2_160" type="standard_car" route="S_N_2" depart="511" departLane="random" departSpeed="10" />
    <vehicle id="N_S_1_161" type="standard_car" route="N_S_1" depart="511" departLane="random" departSpeed="10" />
    <vehicle id="W_S_162" type="standard_car" route="W_S" depart="514" departLane="random" departSpeed="10" />
    <vehicle id="E_N_163" type="standard_car" route="E_N" depart="519" departLane="random" departSpeed="10" />
    <vehicle id="E_W_164" type="standard_car" route="E_W" depart="520" departLane="random" departSpeed="10" />
    <vehicle id="W_S_165" type="standard_car" route="W_S" depart="521" departLane="random" departSpeed="10" />
    <vehicle id="W_S_166" type="standard_car" route="W_S" depart="523" departLane="random" departSpeed="10" />
    <vehicle id="N_S_2_167" type="standard_car" route="N_S_2" depart="523" departLane="random" departSpeed="10" />
    <vehicle id="S_N_1_168" type="standard_car" route="S_N_1" depart="525" departLane="random" departSpeed="10" />
    <vehicle id="E_N_169" type="standard_car" route="E_N" depart="527" departLane="random" departSpeed="10" />
    <vehicle id="W_S_170" type="standard_car" route="W_S" depart="528" departLane="random" departSpeed="10" />
    <vehicle id="N_S_1_171" type="standard_car" route="N_S_1" depart="530" departLane="random" departSpeed="10" />
    <vehicle id="S_E_172" type="standard_car" route="S_E" depart="534" departLane="random" departSpeed="10" />
    <vehicle id="E_W_173" type="standard_car" route="E_W" depart="538" departLane="random" departSpeed="10" />
    <vehicle id="E_W_174" type="standard_car" route="E_W" depart="539" departLane="random" departSpeed="10" />
    <vehicle id="S_N_1_175" type="standard_car" route="S_N_1" depart="540" departLane="random" departSpeed="10" />
    <vehicle id="S_E_176" type="standard_car" route="S_E" depart="540" departLane="random" departSpeed="10" />
    <vehicle id="S_N_2_177" type="standard_car" route="S_N_2" depart="540" departLane="random" departSpeed="10" />
    <vehicle id="N_S_1_178" type="standard_car" route="N_S_1" depart="543" departLane="random" departSpeed="10" />
    <vehicle id="N_S_2_179" type="standard_car" route="N_S_2" depart="544" departLane="random" departSpeed="10" />
    <vehicle id="N_S_2_180" type="standard_car" route="N_S_2" depart="546" departLane="random" departSpeed="10" />
    <vehicle id="N_S_2_181" type="standard_car" route="N_S_2" depart="549" departLane="random" departSpeed="10" />
    <vehicle id="S_E_182" type="standard_car" route="S_E" depart="551" departLane="random" departSpeed="10" />
    <vehicle id="W_S_183" type="standard_car" route="W_S" depart="555" departLane="random" departSpeed="10" />
    <vehicle id="W_S_184" type="standard_car" route="W_S" depart="560" departLane="random" departSpeed="10" />
    <vehicle id="N_W_185" type="standard_car" route="N_W" depart="560" departLane="random" departSpeed="10" />
    <vehicle id="N_W_186" type="standard_car" route="N_W" depart="560" departLane="random" departSpeed="10" />
    <vehicle id="S_N_2_187" type="standard_car" route="S_N_2" depart="563" departLane="random" departSpeed="10" />
    <vehicle id="N_S_1_188" type="standard_car" route="N_S_1" depart="564" departLane="random" departSpeed="10" />
    <vehicle id="W_E_189" type="standard_car" route="W_E" depart="564" departLane="random" departSpeed="10" />
    <vehicle id="W_E_190" type="standard_car" route="W_E" depart="567" departLane="random" departSpeed="10" />
    <vehicle id="E_N_191" type="standard_car" route="E_N" depart="568" departLane="random" departSpeed="10" />
    <vehicle id="E_N_192" type="standard_car" route="E_N" depart="570" departLane="random" departSpeed="10" />
    <vehicle id="S_N_2_193" type="standard_car" route="S_N_2" depart="570" departLane="random" departSpeed="10" />
    <vehicle id="E_W_194" type="standard_car" route="E_W" depart="571" departLane="random" departSpeed="10" />
    <vehicle id="N_S_2_195" type="standard_car" route="N_S_2" depart="571" departLane="random" departSpeed="10" />
    <vehicle id="S_E_196" type="standard_car" route="S_E" depart="572" departLane="random" departSpeed="10" />
    <vehicle id="S_N_2_197" type="standard_car" route="S_N_2" depart="572" departLane="random" departSpeed="10" />
    <vehicle id="S_N_1_198" type="standard_car" route="S_N_1" depart="572" departLane="random" departSpeed="10" />
    <vehicle id="N_S_1_199" type="standard_car" route="N_S_1" depart="576" departLane="random" departSpeed="10" />
    <vehicle id="E_W_200" type="standard_car" route="E_W" depart="579" departLane="random" departSpeed="10" />
    <vehicle id="N_S_1_201" type="standard_car" route="N_S_1" depart="581" departLane="random" departSpeed="10" />
    <vehicle id="W_S_202" type="standard_car" route="W_S" depart="582" departLane="random" departSpeed="10" />
    <vehicle id="E_W_203" type="standard_car" route="E_W" depart="583" departLane="random" departSpeed="10" />
    <vehicle id="W_S_204" type="standard_car" route="W_S" depart="583" departLane="random" departSpeed="10" />
    <vehicle id="W_E_205" type="standard_car" route="W_E" depart="584" departLane="random" departSpeed="10" />
    <vehicle id="S_N_2_206" type="standard_car" route="S_N_2" depart="600" departLane="random" departSpeed="10" />
    <vehicle id="E_W_207" type="standard_car" route="E_W" depart="603" departLane="random" departSpeed="10" />
    <vehicle id="S_N_2_208" type="standard_car" route="S_N_2" depart="603" departLane="random" departSpeed="10" />
    <vehicle id="E_W_209" type="standard_car" route="E_W" depart="603" departLane="random" departSpeed="10" />
    <vehicle id="N_S_1_210" type="standard_car" route="N_S_1" depart="605" departLane="random" departSpeed="10" />
    <vehicle id="S_E_211" type="standard_car" route="S_E" depart="606" departLane="random" departSpeed="10" />
    <vehicle id="N_S_2_212" type="standard_car" route="N_S_2" depart="607" departLane="random" departSpeed="10" />
    <vehicle id="N_W_213" type="standard_car" route="N_W" depart="610" departLane="random" departSpeed="10" />
    <vehicle id="S_N_2_214" type="standard_car" route="S_N_2" depart="616" departLane="random" departSpeed="10" />
    <vehicle id="S_N_1_215" type="standard_car" route="S_N_1" depart="625" departLane="random" departSpeed="10" />
    <vehicle id="W_S_216" type="standard_car" route="W_S" depart="627" departLane="random" departSpeed="10" />
    <vehicle id="N_S_1_217" type="standard_car" route="N_S_1" depart="629" departLane="random" departSpeed="10" />
    <vehicle id="S_N_2_218" type="standard_car" route="S_N_2" depart="630" departLane="random" departSpeed="10" />
    <vehicle id="W_S_219" type="standard_car" route="W_S" depart="632" departLane="random" departSpeed="10" />
    <vehicle id="S_N_1_220" type="standard_car" route="S_N_1" depart="633" departLane="random" departSpeed="10" />
    <vehicle id="S_N_2_221" type="standard_car" route="S_N_2" depart="637" departLane="random" departSpeed="10" />
    <vehicle id="E_N_222" type="standard_car" route="E_N" depart="637" departLane="random" departSpeed="10" />
    <vehicle id="S_N_1_223" type="standard_car" route="S_N_1" depart="639" departLane="random" departSpeed="10" />
    <vehicle id="E_W_224" type="standard_car" route="E_W" depart="644" departLane="random" departSpeed="10" />
    <vehicle id="W_S_225" type="standard_car" route="W_S" depart="647" departLane="random" departSpeed="10" />
    <vehicle id="N_S_1_226" type="standard_car" route="N_S_1" depart="647" departLane="random" departSpeed="10" />
    <vehicle id="E_N_227" type="standard_car" route="E_N" depart="650" departLane="random" departSpeed="10" />
    <vehicle id="E_W_228" type="standard_car" route="E_W" depart="650" departLane="random" departSpeed="10" />
    <vehicle id="W_E_229" type="standard_car" route="W_E" depart="654" departLane="random" departSpeed="10" />
    <vehicle id="W_E_230" type="standard_car" route="W_E" depart="658" departLane="random" departSpeed="10" />
    <vehicle id="S_N_1_231" type="standard_car" route="S_N_1" depart="659" departLane="random" departSpeed="10" />
    <vehicle id="S_E_232" type="standard_car" route="S_E" depart="660" departLane="random" departSpeed="10" />
    <vehicle id="N_S_1_233" type="standard_car" route="N_S_1" depart="660" departLane="random" departSpeed="10" />
    <vehicle id="W_E_234" type="standard_car" route="W_E" depart="662" departLane="random" departSpeed="10" />
    <vehicle id="N_W_235" type="standard_car" route="N_W" depart="664" departLane="random" departSpeed="10" />
    <vehicle id="N_S_2_236" type="standard_car" route="N_S_2" depart="665" departLane="random" departSpeed="10" />
    <vehicle id="N_S_2_237" type="standard_car" route="N_S_2" depart="667" departLane="random" departSpeed="10" />
    <vehicle id="W_E_238" type="standard_car" route="W_E" depart="667" departLane="random" departSpeed="10" />
    <vehicle id="E_W_239" type="standard_car" route="E_W" depart="670" departLane="random" departSpeed="10" />
    <vehicle id="S_N_1_240" type="standard_car" route="S_N_1" depart="670" departLane="random" departSpeed="10" />
    <vehicle id="N_S_2_241" type="standard_car" route="N_S_2" depart="674" departLane="random" departSpeed="10" />
    <vehicle id="S_N_1_242" type="standard_car" route="S_N_1" depart="678" departLane="random" departSpeed="10" />
    <vehicle id="S_N_1_243" type="standard_car" route="S_N_1" depart="679" departLane="random" departSpeed="10" />
    <vehicle id="S_N_2_244" type="standard_car" route="S_N_2" depart="680" departLane="random" departSpeed="10" />
    <vehicle id="E_W_245" type="standard_car" route="E_W" depart="680" departLane="random" departSpeed="10" />
    <vehicle id="N_S_1_246" type="standard_car" route="N_S_1" depart="682" departLane="random" departSpeed="10" />
    <vehicle id="W_S_247" type="standard_car" route="W_S" depart="684" departLane="random" departSpeed="10" />
    <vehicle id="N_S_2_248" type="standard_car" route="N_S_2" depart="684" departLane="random" departSpeed="10" />
    <vehicle id="W_S_249" type="standard_car" route="W_S" depart="687" departLane="random" departSpeed="10" />
    <vehicle id="S_N_1_250" type="standard_car" route="S_N_1" depart="687" departLane="random" departSpeed="10" />
    <vehicle id="E_W_251" type="standard_car" route="E_W" depart="689" departLane="random" departSpeed="10" />
    <vehicle id="N_S_2_252" type="standard_car" route="N_S_2" depart="692" departLane="random" departSpeed="10" />
    <vehicle id="N_W_253" type="standard_car" route="N_W" depart="694" departLane="random" departSpeed="10" />
    <vehicle id="E_W_254" type="standard_car" route="E_W" depart="696" departLane="random" departSpeed="10" />
    <vehicle id="S_N_1_255" type="standard_car" route="S_N_1" depart="697" departLane="random" departSpeed="10" />
    <vehicle id="S_N_1_256" type="standard_car" route="S_N_1" depart="697" departLane="random" departSpeed="10" />
    <vehicle id="N_S_2_257" type="standard_car" route="N_S_2" depart="697" departLane="random" departSpeed="10" />
    <vehicle id="N_S_2_258" type="standard_car" route="N_S_2" depart="698" departLane="random" departSpeed="10" />
    <vehicle id="S_E_259" type="standard_car" route="S_E" depart="699" departLane="random" departSpeed="10" />