<nodes>
    <node id="n11" x="0" y="200" type="priority"/>
    <node id="n12" x="100" y="200" type="priority"/>
    <node id="n13" x="200" y="200" type="priority"/>
    <node id="n14" x="300" y="200" type="priority"/>

    <node id="n21" x="0" y="100" type="priority"/>
    <node id="n22" x="100" y="100" type="traffic_light"/>
    <node id="n23" x="200" y="100" type="traffic_light"/>
    <node id="n24" x="300" y="100" type="priority"/>

    <node id="n31" x="0" y="0" type="priority"/>
    <node id="n32" x="100" y="0" type="priority"/>
    <node id="n33" x="200" y="0" type="priority"/>
    <node id="n34" x="300" y="0" type="priority"/>
</nodes>
