<connections>
    <!-- ========== Intersection n22 ========== -->

    <!-- FROM h2L (→) -->
    <connection from="h2L" to="h2M" fromLane="0" toLane="0"/> <!-- lane 0 straight -->
    <connection from="h2L" to="h2M" fromLane="1" toLane="1"/> <!-- lane 1 straight -->
    <connection from="h2L" to="v2M" fromLane="0" toLane="0"/> <!-- right turn from lane 0 -->

    <!-- FROM v2T (↓) -->
    <connection from="v2T" to="v2M" fromLane="0" toLane="0"/> <!-- lane 0 straight -->
    <connection from="v2T" to="v2M" fromLane="1" toLane="1"/> <!-- lane 1 straight -->
    <connection from="v2T" to="h2L_rev" fromLane="0" toLane="0"/> <!-- right turn from lane 0 -->

    <!-- FROM h2M_rev (←) -->
    <connection from="h2M_rev" to="h2L_rev" fromLane="0" toLane="0"/> <!-- lane 0 straight -->
    <connection from="h2M_rev" to="h2L_rev" fromLane="1" toLane="1"/> <!-- lane 1 straight -->
    <connection from="h2M_rev" to="v2T_rev" fromLane="0" toLane="0"/> <!-- right turn from lane 0 -->

    <!-- FROM v2M_rev (↑) -->
    <connection from="v2M_rev" to="v2T_rev" fromLane="0" toLane="0"/> <!-- lane 0 straight -->
    <connection from="v2M_rev" to="v2T_rev" fromLane="1" toLane="1"/> <!-- lane 1 straight -->
    <connection from="v2M_rev" to="h2M" fromLane="0" toLane="0"/> <!-- right turn from lane 0 -->

    <!-- ========== Intersection n23 ========== -->

    <!-- FROM h2M (→) -->
    <connection from="h2M" to="h2R" fromLane="0" toLane="0"/> <!-- lane 0 straight -->
    <connection from="h2M" to="h2R" fromLane="1" toLane="1"/> <!-- lane 1 straight -->
    <connection from="h2M" to="v3M" fromLane="0" toLane="0"/> <!-- right turn from lane 0 -->

    <!-- FROM v3T (↓) -->
    <connection from="v3T" to="v3M" fromLane="0" toLane="0"/> <!-- lane 0 straight -->
    <connection from="v3T" to="v3M" fromLane="1" toLane="1"/> <!-- lane 1 straight -->
    <connection from="v3T" to="h2M_rev" fromLane="0" toLane="0"/> <!-- right turn from lane 0 -->

    <!-- FROM h2R_rev (←) -->
    <connection from="h2R_rev" to="h2M_rev" fromLane="0" toLane="0"/> <!-- lane 0 straight -->
    <connection from="h2R_rev" to="h2M_rev" fromLane="1" toLane="1"/> <!-- lane 1 straight -->
    <connection from="h2R_rev" to="v3T_rev" fromLane="0" toLane="0"/> <!-- right turn from lane 0 -->

    <!-- FROM v3M_rev (↑) -->
    <connection from="v3M_rev" to="v3T_rev" fromLane="0" toLane="0"/> <!-- lane 0 straight -->
    <connection from="v3M_rev" to="v3T_rev" fromLane="1" toLane="1"/> <!-- lane 1 straight -->
    <connection from="v3M_rev" to="h2R" fromLane="0" toLane="0"/> <!-- right turn from lane 0 -->
</connections>
