<routes>
            <vType id="emergency" accel="3.0" decel="6.0" color="1,0,0" maxSpeed="20" sigma="0.5" emergency="true" />
            <vType id="standard_car" accel="1.0" decel="4.5" length="5.0" minGap="2.5" maxSpeed="25" sigma="0.5" />
            <route id="E_W" edges="2_E2TL 2_TL2W TL2W" />
            <route id="W_E" edges="W2TL TL2E 2_TL2E" />
            <route id="N_S_1" edges="2_N2TL 2_TL2S" />
            <route id="N_S_2" edges="N2TL TL2S" />
            <route id="S_N_1" edges="S2TL TL2N" />
            <route id="S_N_2" edges="2_S2TL 2_TL2N" />
            <route id="N_W" edges="2_N2TL 2_TL2W" />
            <route id="S_E" edges="S2TL TL2E" />
            <route id="E_N" edges="2_E2TL 2_TL2N" />
            <route id="W_S" edges="W2TL TL2E 2_TL2S" />
    <vehicle id="W_E_0" type="standard_car" route="W_E" depart="51" departLane="random" departSpeed="10" />
    <vehicle id="N_S_2_1" type="standard_car" route="N_S_2" depart="55" departLane="random" departSpeed="10" />
    <vehicle id="S_N_2_2" type="standard_car" route="S_N_2" depart="62" departLane="random" departSpeed="10" />
    <vehicle id="S_N_1_3" type="standard_car" route="S_N_1" depart="68" departLane="random" departSpeed="10" />
    <vehicle id="E_N_4" type="standard_car" route="E_N" depart="73" departLane="random" departSpeed="10" />
    <vehicle id="W_S_5" type="standard_car" route="W_S" depart="76" departLane="random" departSpeed="10" />
    <vehicle id="N_S_1_6" type="standard_car" route="N_S_1" depart="87" departLane="random" departSpeed="10" />
    <vehicle id="S_E_7" type="standard_car" route="S_E" depart="91" departLane="random" departSpeed="10" />
    <vehicle id="N_W_8" type="standard_car" route="N_W" depart="110" departLane="random" departSpeed="10" />
    <vehicle id="E_W_9" type="standard_car" route="E_W" depart="114" departLane="random" departSpeed="10" />
    <vehicle id="E_N_10" type="standard_car" route="E_N" depart="115" departLane="random" departSpeed="10" />
    <vehicle id="E_W_11" type="standard_car" route="E_W" depart="118" departLane="random" departSpeed="10" />
    <vehicle id="E_W_12" type="standard_car" route="E_W" depart="122" departLane="random" departSpeed="10" />
    <vehicle id="E_W_13" type="standard_car" route="E_W" depart="138" departLane="random" departSpeed="10" />
    <vehicle id="N_S_2_14" type="standard_car" route="N_S_2" depart="138" departLane="random" departSpeed="10" />
    <vehicle id="N_S_1_15" type="standard_car" route="N_S_1" depart="141" departLane="random" departSpeed="10" />
    <vehicle id="S_N_1_16" type="standard_car" route="S_N_1" depart="146" departLane="random" departSpeed="10" />
    <vehicle id="S_N_2_17" type="standard_car" route="S_N_2" depart="147" departLane="random" departSpeed="10" />
    <vehicle id="N_W_18" type="standard_car" route="N_W" depart="151" departLane="random" departSpeed="10" />
    <vehicle id="W_S_19" type="standard_car" route="W_S" depart="152" departLane="random" departSpeed="10" />
    <vehicle id="S_E_20" type="standard_car" route="S_E" depart="157" departLane="random" departSpeed="10" />
    <vehicle id="S_N_2_21" type="standard_car" route="S_N_2" depart="160" departLane="random" departSpeed="10" />
    <vehicle id="S_E_22" type="standard_car" route="S_E" depart="165" departLane="random" departSpeed="10" />
    <vehicle id="W_S_23" type="standard_car" route="W_S" depart="168" departLane="random" departSpeed="10" />
    <vehicle id="N_W_24" type="standard_car" route="N_W" depart="169" departLane="random" departSpeed="10" />
    <vehicle id="S_N_2_25" type="standard_car" route="S_N_2" depart="172" departLane="random" departSpeed="10" />
    <vehicle id="S_N_1_26" type="standard_car" route="S_N_1" depart="184" departLane="random" departSpeed="10" />
    <vehicle id="S_E_27" type="standard_car" route="S_E" depart="185" departLane="random" departSpeed="10" />
    <vehicle id="W_S_28" type="standard_car" route="W_S" depart="187" departLane="random" departSpeed="10" />
    <vehicle id="N_S_1_29" type="standard_car" route="N_S_1" depart="191" departLane="random" departSpeed="10" />
    <vehicle id="S_N_2_30" type="standard_car" route="S_N_2" depart="195" departLane="random" departSpeed="10" />
    <vehicle id="S_N_1_31" type="standard_car" route="S_N_1" depart="199" departLane="random" departSpeed="10" />
    <vehicle id="S_N_2_32" type="standard_car" route="S_N_2" depart="204" departLane="random" departSpeed="10" />
    <vehicle id="N_S_2_33" type="standard_car" route="N_S_2" depart="205" departLane="random" departSpeed="10" />
    <vehicle id="S_E_34" type="standard_car" route="S_E" depart="208" departLane="random" departSpeed="10" />
    <vehicle id="S_N_1_35" type="standard_car" route="S_N_1" depart="210" departLane="random" departSpeed="10" />
    <vehicle id="E_N_36" type="standard_car" route="E_N" depart="215" departLane="random" departSpeed="10" />
    <vehicle id="N_S_2_37" type="standard_car" route="N_S_2" depart="219" departLane="random" departSpeed="10" />
    <vehicle id="E_W_38" type="standard_car" route="E_W" depart="229" departLane="random" departSpeed="10" />
    <vehicle id="N_S_1_39" type="standard_car" route="N_S_1" depart="236" departLane="random" departSpeed="10" />
    <vehicle id="N_S_1_40" type="standard_car" route="N_S_1" depart="246" departLane="random" departSpeed="10" />
    <vehicle id="N_W_41" type="standard_car" route="N_W" depart="246" departLane="random" departSpeed="10" />
    <vehicle id="W_S_42" type="standard_car" route="W_S" depart="248" departLane="random" departSpeed="10" />
    <vehicle id="S_N_1_43" type="standard_car" route="S_N_1" depart="248" departLane="random" departSpeed="10" />
    <vehicle id="S_N_2_44" type="standard_car" route="S_N_2" depart="249" departLane="random" departSpeed="10" />
    <vehicle id="N_W_45" type="standard_car" route="N_W" depart="251" departLane="random" departSpeed="10" />
    <vehicle id="N_W_46" type="standard_car" route="N_W" depart="251" departLane="random" departSpeed="10" />
    <vehicle id="S_E_47" type="standard_car" route="S_E" depart="252" departLane="random" departSpeed="10" />
    <vehicle id="N_W_48" type="standard_car" route="N_W" depart="252" departLane="random" departSpeed="10" />
    <vehicle id="S_N_1_49" type="standard_car" route="S_N_1" depart="253" departLane="random" departSpeed="10" />
    <vehicle id="S_N_2_50" type="standard_car" route="S_N_2" depart="256" departLane="random" departSpeed="10" />
    <vehicle id="W_E_51" type="standard_car" route="W_E" depart="257" departLane="random" departSpeed="10" />
    <vehicle id="S_N_1_52" type="standard_car" route="S_N_1" depart="262" departLane="random" departSpeed="10" />
    <vehicle id="N_S_2_53" type="standard_car" route="N_S_2" depart="270" departLane="random" departSpeed="10" />
    <vehicle id="S_N_2_54" type="standard_car" route="S_N_2" depart="270" departLane="random" departSpeed="10" />
    <vehicle id="S_N_2_55" type="standard_car" route="S_N_2" depart="277" departLane="random" departSpeed="10" />
    <vehicle id="S_E_56" type="standard_car" route="S_E" depart="278" departLane="random" departSpeed="10" />
    <vehicle id="N_W_57" type="standard_car" route="N_W" depart="278" departLane="random" departSpeed="10" />
    <vehicle id="N_S_1_58" type="standard_car" route="N_S_1" depart="283" departLane="random" departSpeed="10" />
    <vehicle id="N_W_59" type="standard_car" route="N_W" depart="284" departLane="random" departSpeed="10" />
    <vehicle id="N_S_2_60" type="standard_car" route="N_S_2" depart="289" departLane="random" departSpeed="10" />
    <vehicle id="N_W_61" type="standard_car" route="N_W" depart="289" departLane="random" departSpeed="10" />
    <vehicle id="N_S_1_62" type="standard_car" route="N_S_1" depart="290" departLane="random" departSpeed="10" />
    <vehicle id="S_N_1_63" type="standard_car" route="S_N_1" depart="293" departLane="random" departSpeed="10" />
    <vehicle id="S_N_2_64" type="standard_car" route="S_N_2" depart="300" departLane="random" departSpeed="10" />
    <vehicle id="N_S_1_65" type="standard_car" route="N_S_1" depart="302" departLane="random" departSpeed="10" />
    <vehicle id="S_N_2_66" type="standard_car" route="S_N_2" depart="302" departLane="random" departSpeed="10" />
    <vehicle id="S_N_2_67" type="standard_car" route="S_N_2" depart="303" departLane="random" departSpeed="10" />
    <vehicle id="S_E_68" type="standard_car" route="S_E" depart="311" departLane="random" departSpeed="10" />
    <vehicle id="S_N_1_69" type="standard_car" route="S_N_1" depart="311" departLane="random" departSpeed="10" />
    <vehicle id="W_S_70" type="standard_car" route="W_S" depart="313" departLane="random" departSpeed="10" />
    <vehicle id="N_S_2_71" type="standard_car" route="N_S_2" depart="316" departLane="random" departSpeed="10" />
    <vehicle id="S_N_2_72" type="standard_car" route="S_N_2" depart="317" departLane="random" departSpeed="10" />
    <vehicle id="N_W_73" type="standard_car" route="N_W" depart="318" departLane="random" departSpeed="10" />
    <vehicle id="N_S_2_74" type="standard_car" route="N_S_2" depart="320" departLane="random" departSpeed="10" />
    <vehicle id="N_S_1_75" type="standard_car" route="N_S_1" depart="321" departLane="random" departSpeed="10" />
    <vehicle id="N_S_2_76" type="standard_car" route="N_S_2" depart="322" departLane="random" departSpeed="10" />
    <vehicle id="W_E_77" type="standard_car" route="W_E" depart="323" departLane="random" departSpeed="10" />
    <vehicle id="E_W_78" type="standard_car" route="E_W" depart="329" departLane="random" departSpeed="10" />
    <vehicle id="S_N_1_79" type="standard_car" route="S_N_1" depart="330" departLane="random" departSpeed="10" />
    <vehicle id="S_E_80" type="standard_car" route="S_E" depart="331" departLane="random" departSpeed="10" />
    <vehicle id="N_W_81" type="standard_car" route="N_W" depart="332" departLane="random" departSpeed="10" />
    <vehicle id="N_W_82" type="standard_car" route="N_W" depart="334" departLane="random" departSpeed="10" />
    <vehicle id="N_W_83" type="standard_car" route="N_W" depart="336" departLane="random" departSpeed="10" />
    <vehicle id="S_N_1_84" type="standard_car" route="S_N_1" depart="337" departLane="random" departSpeed="10" />
    <vehicle id="E_W_85" type="standard_car" route="E_W" depart="337" departLane="random" departSpeed="10" />
    <vehicle id="W_E_86" type="standard_car" route="W_E" depart="338" departLane="random" departSpeed="10" />
    <vehicle id="E_W_87" type="standard_car" route="E_W" depart="338" departLane="random" departSpeed="10" />
    <vehicle id="N_S_2_88" type="standard_car" route="N_S_2" depart="338" departLane="random" departSpeed="10" />
    <vehicle id="N_S_2_89" type="standard_car" route="N_S_2" depart="339" departLane="random" departSpeed="10" />
    <vehicle id="N_S_2_90" type="standard_car" route="N_S_2" depart="341" departLane="random" departSpeed="10" />
    <vehicle id="N_S_1_91" type="standard_car" route="N_S_1" depart="342" departLane="random" departSpeed="10" />
    <vehicle id="S_N_2_92" type="standard_car" route="S_N_2" depart="352" departLane="random" departSpeed="10" />
    <vehicle id="N_W_93" type="standard_car" route="N_W" depart="352" departLane="random" departSpeed="10" />
    <vehicle id="N_S_1_94" type="standard_car" route="N_S_1" depart="353" departLane="random" departSpeed="10" />
    <vehicle id="E_N_95" type="standard_car" route="E_N" depart="356" departLane="random" departSpeed="10" />
    <vehicle id="W_E_96" type="standard_car" route="W_E" depart="358" departLane="random" departSpeed="10" />
    <vehicle id="S_E_97" type="standard_car" route="S_E" depart="359" departLane="random" departSpeed="10" />
    <vehicle id="N_S_2_98" type="standard_car" route="N_S_2" depart="360" departLane="random" departSpeed="10" />
    <vehicle id="N_S_1_99" type="standard_car" route="N_S_1" depart="360" departLane="random" departSpeed="10" />
    <vehicle id="W_E_100" type="standard_car" route="W_E" depart="361" departLane="random" departSpeed="10" />
    <vehicle id="S_N_1_101" type="standard_car" route="S_N_1" depart="362" departLane="random" departSpeed="10" />
    <vehicle id="E_W_102" type="standard_car" route="E_W" depart="365" departLane="random" departSpeed="10" />
    <vehicle id="S_E_103" type="standard_car" route="S_E" depart="365" departLane="random" departSpeed="10" />
    <vehicle id="E_N_104" type="standard_car" route="E_N" depart="365" departLane="random" departSpeed="10" />
    <vehicle id="W_E_105" type="standard_car" route="W_E" depart="367" departLane="random" departSpeed="10" />
    <vehicle id="W_E_106" type="standard_car" route="W_E" depart="369" departLane="random" departSpeed="10" />
    <vehicle id="N_S_2_107" type="standard_car" route="N_S_2" depart="378" departLane="random" departSpeed="10" />
    <vehicle id="S_N_2_108" type="standard_car" route="S_N_2" depart="380" departLane="random" departSpeed="10" />
    <vehicle id="E_W_109" type="standard_car" route="E_W" depart="382" departLane="random" departSpeed="10" />
    <vehicle id="E_W_110" type="standard_car" route="E_W" depart="384" departLane="random" departSpeed="10" />
    <vehicle id="N_S_2_111" type="standard_car" route="N_S_2" depart="391" departLane="random" departSpeed="10" />
    <vehicle id="S_N_1_112" type="standard_car" route="S_N_1" depart="392" departLane="random" departSpeed="10" />
    <vehicle id="N_S_2_113" type="standard_car" route="N_S_2" depart="392" departLane="random" departSpeed="10" />
    <vehicle id="W_E_114" type="standard_car" route="W_E" depart="393" departLane="random" departSpeed="10" />
    <vehicle id="E_W_115" type="standard_car" route="E_W" depart="395" departLane="random" departSpeed="10" />
    <vehicle id="W_E_116" type="standard_car" route="W_E" depart="397" departLane="random" departSpeed="10" />
    <vehicle id="N_S_2_117" type="standard_car" route="N_S_2" depart="399" departLane="random" departSpeed="10" />
    <vehicle id="N_S_2_118" type="standard_car" route="N_S_2" depart="401" departLane="random" departSpeed="10" />
    <vehicle id="E_N_119" type="standard_car" route="E_N" depart="403" departLane="random" departSpeed="10" />
    <vehicle id="S_N_2_120" type="standard_car" route="S_N_2" depart="405" departLane="random" departSpeed="10" />
    <vehicle id="S_N_2_121" type="standard_car" route="S_N_2" depart="405" departLane="random" departSpeed="10" />
    <vehicle id="S_N_2_122" type="standard_car" route="S_N_2" depart="413" departLane="random" departSpeed="10" />
    <vehicle id="S_N_2_123" type="standard_car" route="S_N_2" depart="415" departLane="random" departSpeed="10" />
    <vehicle id="W_E_124" type="standard_car" route="W_E" depart="418" departLane="random" departSpeed="10" />
    <vehicle id="W_E_125" type="standard_car" route="W_E" depart="420" departLane="random" departSpeed="10" />
    <vehicle id="N_S_1_126" type="standard_car" route="N_S_1" depart="422" departLane="random" departSpeed="10" />
    <vehicle id="S_N_1_127" type="standard_car" route="S_N_1" depart="423" departLane="random" departSpeed="10" />
    <vehicle id="S_N_1_128" type="standard_car" route="S_N_1" depart="425" departLane="random" departSpeed="10" />
    <vehicle id="S_N_1_129" type="standard_car" route="S_N_1" depart="429" departLane="random" departSpeed="10" />
    <vehicle id="W_S_130" type="standard_car" route="W_S" depart="429" departLane="random" departSpeed="10" />
    <vehicle id="W_E_131" type="standard_car" route="W_E" depart="432" departLane="random" departSpeed="10" />
    <vehicle id="N_S_1_132" type="standard_car" route="N_S_1" depart="434" departLane="random" departSpeed="10" />
    <vehicle id="S_N_2_133" type="standard_car" route="S_N_2" depart="436" departLane="random" departSpeed="10" />
    <vehicle id="S_N_1_134" type="standard_car" route="S_N_1" depart="436" departLane="random" departSpeed="10" />
    <vehicle id="E_W_135" type="standard_car" route="E_W" depart="438" departLane="random" departSpeed="10" />
    <vehicle id="N_S_1_136" type="standard_car" route="N_S_1" depart="438" departLane="random" departSpeed="10" />
    <vehicle id="N_W_137" type="standard_car" route="N_W" depart="443" departLane="random" departSpeed="10" />
    <vehicle id="N_S_2_138" type="standard_car" route="N_S_2" depart="444" departLane="random" departSpeed="10" />
    <vehicle id="W_E_139" type="standard_car" route="W_E" depart="450" departLane="random" departSpeed="10" />
    <vehicle id="S_N_1_140" type="standard_car" route="S_N_1" depart="452" departLane="random" departSpeed="10" />
    <vehicle id="N_S_1_141" type="standard_car" route="N_S_1" depart="454" departLane="random" departSpeed="10" />
    <vehicle id="W_E_142" type="standard_car" route="W_E" depart="454" departLane="random" departSpeed="10" />
    <vehicle id="E_W_143" type="standard_car" route="E_W" depart="457" departLane="random" departSpeed="10" />
    <vehicle id="W_S_144" type="standard_car" route="W_S" depart="458" departLane="random" departSpeed="10" />
    <vehicle id="N_S_2_145" type="standard_car" route="N_S_2" depart="459" departLane="random" departSpeed="10" />
    <vehicle id="N_S_2_146" type="standard_car" route="N_S_2" depart="459" departLane="random" departSpeed="10" />
    <vehicle id="S_N_2_147" type="standard_car" route="S_N_2" depart="460" departLane="random" departSpeed="10" />
    <vehicle id="W_E_148" type="standard_car" route="W_E" depart="460" departLane="random" departSpeed="10" />
    <vehicle id="S_N_1_149" type="standard_car" route="S_N_1" depart="461" departLane="random" departSpeed="10" />
    <vehicle id="E_N_150" type="standard_car" route="E_N" depart="463" departLane="random" departSpeed="10" />
    <vehicle id="S_N_1_151" type="standard_car" route="S_N_1" depart="471" departLane="random" departSpeed="10" />
    <vehicle id="N_W_152" type="standard_car" route="N_W" depart="472" departLane="random" departSpeed="10" />
    <vehicle id="N_S_1_153" type="standard_car" route="N_S_1" depart="473" departLane="random" departSpeed="10" />
    <vehicle id="E_N_154" type="standard_car" route="E_N" depart="475" departLane="random" departSpeed="10" />
    <vehicle id="W_E_155" type="standard_car" route="W_E" depart="475" departLane="random" departSpeed="10" />
    <vehicle id="S_N_2_156" type="standard_car" route="S_N_2" depart="476" departLane="random" departSpeed="10" />
    <vehicle id="E_W_157" type="standard_car" route="E_W" depart="476" departLane="random" departSpeed="10" />
    <vehicle id="S_N_1_158" type="standard_car" route="S_N_1" depart="478" departLane="random" departSpeed="10" />
    <vehicle id="N_W_159" type="standard_car" route="N_W" depart="479" departLane="random" departSpeed="10" />
    <vehicle id="N_S_2_160" type="standard_car" route="N_S_2" depart="480" departLane="random" departSpeed="10" />
    <vehicle id="S_E_161" type="standard_car" route="S_E" depart="481" departLane="random" departSpeed="10" />
    <vehicle id="E_N_162" type="standard_car" route="E_N" depart="482" departLane="random" departSpeed="10" />
    <vehicle id="N_S_2_163" type="standard_car" route="N_S_2" depart="482" departLane="random" departSpeed="10" />
    <vehicle id="N_S_1_164" type="standard_car" route="N_S_1" depart="482" departLane="random" departSpeed="10" />
    <vehicle id="S_N_2_165" type="standard_car" route="S_N_2" depart="482" departLane="random" departSpeed="10" />
    <vehicle id="W_E_166" type="standard_car" route="W_E" depart="486" departLane="random" departSpeed="10" />
    <vehicle id="E_W_167" type="standard_car" route="E_W" depart="487" departLane="random" departSpeed="10" />
    <vehicle id="S_N_2_168" type="standard_car" route="S_N_2" depart="487" departLane="random" departSpeed="10" />
    <vehicle id="S_N_2_169" type="standard_car" route="S_N_2" depart="494" departLane="random" departSpeed="10" />
    <vehicle id="W_E_170" type="standard_car" route="W_E" depart="496" departLane="random" departSpeed="10" />
    <vehicle id="S_E_171" type="standard_car" route="S_E" depart="497" departLane="random" departSpeed="10" />
    <vehicle id="N_S_1_172" type="standard_car" route="N_S_1" depart="498" departLane="random" departSpeed="10" />
    <vehicle id="N_S_1_173" type="standard_car" route="N_S_1" depart="499" departLane="random" departSpeed="10" />
    <vehicle id="E_N_174" type="standard_car" route="E_N" depart="499" departLane="random" departSpeed="10" />
    <vehicle id="N_W_175" type="standard_car" route="N_W" depart="501" departLane="random" departSpeed="10" />
    <vehicle id="N_S_1_176" type="standard_car" route="N_S_1" depart="501" departLane="random" departSpeed="10" />
    <vehicle id="W_S_177" type="standard_car" route="W_S" depart="501" departLane="random" departSpeed="10" />
    <vehicle id="N_S_1_178" type="standard_car" route="N_S_1" depart="502" departLane="random" departSpeed="10" />
    <vehicle id="N_S_2_179" type="standard_car" route="N_S_2" depart="503" departLane="random" departSpeed="10" />
    <vehicle id="S_N_2_180" type="standard_car" route="S_N_2" depart="504" departLane="random" departSpeed="10" />
    <vehicle id="N_S_1_181" type="standard_car" route="N_S_1" depart="508" departLane="random" departSpeed="10" />
    <vehicle id="W_E_182" type="standard_car" route="W_E" depart="508" departLane="random" departSpeed="10" />
    <vehicle id="N_S_2_183" type="standard_car" route="N_S_2" depart="509" departLane="random" departSpeed="10" />
    <vehicle id="W_S_184" type="standard_car" route="W_S" depart="509" departLane="random" departSpeed="10" />
    <vehicle id="E_W_185" type="standard_car" route="E_W" depart="511" departLane="random" departSpeed="10" />
    <vehicle id="N_W_186" type="standard_car" route="N_W" depart="513" departLane="random" departSpeed="10" />
    <vehicle id="N_S_2_187" type="standard_car" route="N_S_2" depart="514" departLane="random" departSpeed="10" />
    <vehicle id="E_W_188" type="standard_car" route="E_W" depart="516" departLane="random" departSpeed="10" />
    <vehicle id="S_N_1_189" type="standard_car" route="S_N_1" depart="518" departLane="random" departSpeed="10" />
    <vehicle id="S_N_1_190" type="standard_car" route="S_N_1" depart="526" departLane="random" departSpeed="10" />
    <vehicle id="S_N_1_191" type="standard_car" route="S_N_1" depart="529" departLane="random" departSpeed="10" />
    <vehicle id="N_S_1_192" type="standard_car" route="N_S_1" depart="529" departLane="random" departSpeed="10" />
    <vehicle id="S_N_2_193" type="standard_car" route="S_N_2" depart="534" departLane="random" departSpeed="10" />
    <vehicle id="W_E_194" type="standard_car" route="W_E" depart="534" departLane="random" departSpeed="10" />
    <vehicle id="W_S_195" type="standard_car" route="W_S" depart="536" departLane="random" departSpeed="10" />
    <vehicle id="S_N_1_196" type="standard_car" route="S_N_1" depart="536" departLane="random" departSpeed="10" />
    <vehicle id="W_S_197" type="standard_car" route="W_S" depart="538" departLane="random" departSpeed="10" />
    <vehicle id="W_S_198" type="standard_car" route="W_S" depart="538" departLane="random" departSpeed="10" />
    <vehicle id="S_N_1_199" type="standard_car" route="S_N_1" depart="538" departLane="random" departSpeed="10" />
    <vehicle id="W_E_200" type="standard_car" route="W_E" depart="539" departLane="random" departSpeed="10" />
    <vehicle id="N_S_2_201" type="standard_car" route="N_S_2" depart="541" departLane="random" departSpeed="10" />
    <vehicle id="N_S_2_202" type="standard_car" route="N_S_2" depart="541" departLane="random" departSpeed="10" />
    <vehicle id="W_E_203" type="standard_car" route="W_E" depart="543" departLane="random" departSpeed="10" />
    <vehicle id="S_E_204" type="standard_car" route="S_E" depart="544" departLane="random" departSpeed="10" />
    <vehicle id="N_W_205" type="standard_car" route="N_W" depart="545" departLane="random" departSpeed="10" />
    <vehicle id="N_S_2_206" type="standard_car" route="N_S_2" depart="545" departLane="random" departSpeed="10" />
    <vehicle id="N_W_207" type="standard_car" route="N_W" depart="545" departLane="random" departSpeed="10" />
    <vehicle id="S_N_2_208" type="standard_car" route="S_N_2" depart="549" departLane="random" departSpeed="10" />
    <vehicle id="E_W_209" type="standard_car" route="E_W" depart="550" departLane="random" departSpeed="10" />
    <vehicle id="W_S_210" type="standard_car" route="W_S" depart="552" departLane="random" departSpeed="10" />
    <vehicle id="S_N_1_211" type="standard_car" route="S_N_1" depart="557" departLane="random" departSpeed="10" />
    <vehicle id="S_N_2_212" type="standard_car" route="S_N_2" depart="557" departLane="random" departSpeed="10" />
    <vehicle id="N_S_2_213" type="standard_car" route="N_S_2" depart="559" departLane="random" departSpeed="10" />
    <vehicle id="E_N_214" type="standard_car" route="E_N" depart="561" departLane="random" departSpeed="10" />
    <vehicle id="W_E_215" type="standard_car" route="W_E" depart="562" departLane="random" departSpeed="10" />
    <vehicle id="N_S_1_216" type="standard_car" route="N_S_1" depart="562" departLane="random" departSpeed="10" />
    <vehicle id="E_W_217" type="standard_car" route="E_W" depart="564" departLane="random" departSpeed="10" />
    <vehicle id="W_S_218" type="standard_car" route="W_S" depart="566" departLane="random" departSpeed="10" />
    <vehicle id="N_S_2_219" type="standard_car" route="N_S_2" depart="569" departLane="random" departSpeed="10" />
    <vehicle id="W_E_220" type="standard_car" route="W_E" depart="571" departLane="random" departSpeed="10" />
    <vehicle id="S_N_2_221" type="standard_car" route="S_N_2" depart="575" departLane="random" departSpeed="10" />
    <vehicle id="E_N_222" type="standard_car" route="E_N" depart="576" departLane="random" departSpeed="10" />
    <vehicle id="S_N_1_223" type="standard_car" route="S_N_1" depart="576" departLane="random" departSpeed="10" />
    <vehicle id="S_N_2_224" type="standard_car" route="S_N_2" depart="578" departLane="random" departSpeed="10" />
    <vehicle id="N_S_1_225" type="standard_car" route="N_S_1" depart="578" departLane="random" departSpeed="10" />
    <vehicle id="N_S_2_226" type="standard_car" route="N_S_2" depart="580" departLane="random" departSpeed="10" />
    <vehicle id="N_S_1_227" type="standard_car" route="N_S_1" depart="582" departLane="random" departSpeed="10" />
    <vehicle id="N_S_1_228" type="standard_car" route="N_S_1" depart="587" departLane="random" departSpeed="10" />
    <vehicle id="S_N_1_229" type="standard_car" route="S_N_1" depart="590" departLane="random" departSpeed="10" />
    <vehicle id="N_W_230" type="standard_car" route="N_W" depart="591" departLane="random" departSpeed="10" />
    <vehicle id="E_W_231" type="standard_car" route="E_W" depart="592" departLane="random" departSpeed="10" />
    <vehicle id="S_E_232" type="standard_car" route="S_E" depart="592" departLane="random" departSpeed="10" />
    <vehicle id="E_N_233" type="standard_car" route="E_N" depart="592" departLane="random" departSpeed="10" />
    <vehicle id="N_W_234" type="standard_car" route="N_W" depart="593" departLane="random" departSpeed="10" />
    <vehicle id="N_S_1_235" type="standard_car" route="N_S_1" depart="593" departLane="random" departSpeed="10" />
    <vehicle id="S_E_236" type="standard_car" route="S_E" depart="595" departLane="random" departSpeed="10" />
    <vehicle id="S_N_1_237" type="standard_car" route="S_N_1" depart="596" departLane="random" departSpeed="10" />
    <vehicle id="N_S_1_238" type="standard_car" route="N_S_1" depart="597" departLane="random" departSpeed="10" />
    <vehicle id="S_N_2_239" type="standard_car" route="S_N_2" depart="599" departLane="random" departSpeed="10" />
    <vehicle id="E_W_240" type="standard_car" route="E_W" depart="603" departLane="random" departSpeed="10" />
    <vehicle id="E_W_241" type="standard_car" route="E_W" depart="603" departLane="random" departSpeed="10" />
    <vehicle id="S_E_242" type="standard_car" route="S_E" depart="605" departLane="random" departSpeed="10" />
    <vehicle id="N_S_1_243" type="standard_car" route="N_S_1" depart="606" departLane="random" departSpeed="10" />
    <vehicle id="W_E_244" type="standard_car" route="W_E" depart="608" departLane="random" departSpeed="10" />
    <vehicle id="E_W_245" type="standard_car" route="E_W" depart="608" departLane="random" departSpeed="10" />
    <vehicle id="N_W_246" type="standard_car" route="N_W" depart="608" departLane="random" departSpeed="10" />
    <vehicle id="S_N_2_247" type="standard_car" route="S_N_2" depart="610" departLane="random" departSpeed="10" />
    <vehicle id="N_W_248" type="standard_car" route="N_W" depart="611" departLane="random" departSpeed="10" />
    <vehicle id="E_N_249" type="standard_car" route="E_N" depart="615" departLane="random" departSpeed="10" />
    <vehicle id="S_N_1_250" type="standard_car" route="S_N_1" depart="618" departLane="random" departSpeed="10" />
    <vehicle id="N_W_251" type="standard_car" route="N_W" depart="619" departLane="random" departSpeed="10" />
    <vehicle id="N_S_2_252" type="standard_car" route="N_S_2" depart="620" departLane="random" departSpeed="10" />
    <vehicle id="S_N_1_253" type="standard_car" route="S_N_1" depart="622" departLane="random" departSpeed="10" />
    <vehicle id="E_N_254" type="standard_car" route="E_N" depart="625" departLane="random" departSpeed="10" />
    <vehicle id="N_S_2_255" type="standard_car" route="N_S_2" depart="626" departLane="random" departSpeed="10" />
    <vehicle id="N_S_2_256" type="standard_car" route="N_S_2" depart="629" departLane="random" departSpeed="10" />
    <vehicle id="W_S_257" type="standard_car" route="W_S" depart="630" departLane="random" departSpeed="10" />
    <vehicle id="W_E_258" type="standard_car" route="W_E" depart="630" departLane="random" departSpeed="10" />