<routes>
            <vType id="emergency" accel="3.0" decel="6.0" color="1,0,0" maxSpeed="20" sigma="0.5" emergency="true" />
            <vType id="standard_car" accel="1.0" decel="4.5" length="5.0" minGap="2.5" maxSpeed="25" sigma="0.5" />
            <route id="E_W" edges="2_E2TL 2_TL2W TL2W" />
            <route id="W_E" edges="W2TL TL2E 2_TL2E" />
            <route id="N_S_1" edges="2_N2TL 2_TL2S" />
            <route id="N_S_2" edges="N2TL TL2S" />
            <route id="S_N_1" edges="S2TL TL2N" />
            <route id="S_N_2" edges="2_S2TL 2_TL2N" />
            <route id="N_W" edges="2_N2TL 2_TL2W" />
            <route id="S_E" edges="S2TL TL2E" />
            <route id="E_N" edges="2_E2TL 2_TL2N" />
            <route id="W_S" edges="W2TL TL2E 2_TL2S" />
    <vehicle id="W_S_0" type="standard_car" route="W_S" depart="12" departLane="random" departSpeed="10" />
    <vehicle id="N_S_2_1" type="standard_car" route="N_S_2" depart="34" departLane="random" departSpeed="10" />
    <vehicle id="W_E_2" type="standard_car" route="W_E" depart="52" departLane="random" departSpeed="10" />
    <vehicle id="S_E_3" type="standard_car" route="S_E" depart="65" departLane="random" departSpeed="10" />
    <vehicle id="E_W_4" type="standard_car" route="E_W" depart="74" departLane="random" departSpeed="10" />
    <vehicle id="S_N_1_5" type="standard_car" route="S_N_1" depart="77" departLane="random" departSpeed="10" />
    <vehicle id="N_W_6" type="standard_car" route="N_W" depart="90" departLane="random" departSpeed="10" />
    <vehicle id="E_N_7" type="standard_car" route="E_N" depart="91" departLane="random" departSpeed="10" />
    <vehicle id="S_N_2_8" type="standard_car" route="S_N_2" depart="96" departLane="random" departSpeed="10" />
    <vehicle id="N_S_1_9" type="standard_car" route="N_S_1" depart="97" departLane="random" departSpeed="10" />
    <vehicle id="W_S_10" type="standard_car" route="W_S" depart="98" departLane="random" departSpeed="10" />
    <vehicle id="E_N_11" type="standard_car" route="E_N" depart="99" departLane="random" departSpeed="10" />
    <vehicle id="E_W_12" type="standard_car" route="E_W" depart="101" departLane="random" departSpeed="10" />
    <vehicle id="S_E_13" type="standard_car" route="S_E" depart="101" departLane="random" departSpeed="10" />
    <vehicle id="E_W_14" type="standard_car" route="E_W" depart="103" departLane="random" departSpeed="10" />
    <vehicle id="N_S_2_15" type="standard_car" route="N_S_2" depart="105" departLane="random" departSpeed="10" />
    <vehicle id="N_S_1_16" type="standard_car" route="N_S_1" depart="108" departLane="random" departSpeed="10" />
    <vehicle id="E_W_17" type="standard_car" route="E_W" depart="123" departLane="random" departSpeed="10" />
    <vehicle id="N_S_2_18" type="standard_car" route="N_S_2" depart="125" departLane="random" departSpeed="10" />
    <vehicle id="S_E_19" type="standard_car" route="S_E" depart="126" departLane="random" departSpeed="10" />
    <vehicle id="S_N_1_20" type="standard_car" route="S_N_1" depart="127" departLane="random" departSpeed="10" />
    <vehicle id="emergency_0" type="emergency" route="S_E" depart="128" departLane="random" departSpeed="10" />
    <vehicle id="N_S_1_21" type="standard_car" route="N_S_1" depart="129" departLane="random" departSpeed="10" />
    <vehicle id="S_E_22" type="standard_car" route="S_E" depart="130" departLane="random" departSpeed="10" />
    <vehicle id="W_E_23" type="standard_car" route="W_E" depart="134" departLane="random" departSpeed="10" />
    <vehicle id="S_N_2_24" type="standard_car" route="S_N_2" depart="136" departLane="random" departSpeed="10" />
    <vehicle id="N_S_1_25" type="standard_car" route="N_S_1" depart="139" departLane="random" departSpeed="10" />
    <vehicle id="emergency_1" type="emergency" route="W_S" depart="139" departLane="random" departSpeed="10" />
    <vehicle id="N_S_1_26" type="standard_car" route="N_S_1" depart="140" departLane="random" departSpeed="10" />
    <vehicle id="E_W_27" type="standard_car" route="E_W" depart="148" departLane="random" departSpeed="10" />
    <vehicle id="N_S_1_28" type="standard_car" route="N_S_1" depart="154" departLane="random" departSpeed="10" />
    <vehicle id="S_N_1_29" type="standard_car" route="S_N_1" depart="155" departLane="random" departSpeed="10" />
    <vehicle id="W_E_30" type="standard_car" route="W_E" depart="156" departLane="random" departSpeed="10" />
    <vehicle id="N_S_2_31" type="standard_car" route="N_S_2" depart="160" departLane="random" departSpeed="10" />
    <vehicle id="N_S_1_32" type="standard_car" route="N_S_1" depart="163" departLane="random" departSpeed="10" />
    <vehicle id="W_E_33" type="standard_car" route="W_E" depart="163" departLane="random" departSpeed="10" />
    <vehicle id="S_N_2_34" type="standard_car" route="S_N_2" depart="165" departLane="random" departSpeed="10" />
    <vehicle id="E_W_35" type="standard_car" route="E_W" depart="166" departLane="random" departSpeed="10" />
    <vehicle id="N_W_36" type="standard_car" route="N_W" depart="169" departLane="random" departSpeed="10" />
    <vehicle id="S_E_37" type="standard_car" route="S_E" depart="169" departLane="random" departSpeed="10" />
    <vehicle id="E_W_38" type="standard_car" route="E_W" depart="171" departLane="random" departSpeed="10" />
    <vehicle id="S_N_1_39" type="standard_car" route="S_N_1" depart="174" departLane="random" departSpeed="10" />
    <vehicle id="N_S_1_40" type="standard_car" route="N_S_1" depart="174" departLane="random" departSpeed="10" />
    <vehicle id="S_N_2_41" type="standard_car" route="S_N_2" depart="175" departLane="random" departSpeed="10" />
    <vehicle id="W_S_42" type="standard_car" route="W_S" depart="180" departLane="random" departSpeed="10" />
    <vehicle id="E_N_43" type="standard_car" route="E_N" depart="181" departLane="random" departSpeed="10" />
    <vehicle id="S_E_44" type="standard_car" route="S_E" depart="182" departLane="random" departSpeed="10" />
    <vehicle id="emergency_2" type="emergency" route="W_S" depart="184" departLane="random" departSpeed="10" />
    <vehicle id="N_S_1_45" type="standard_car" route="N_S_1" depart="185" departLane="random" departSpeed="10" />
    <vehicle id="S_N_2_46" type="standard_car" route="S_N_2" depart="189" departLane="random" departSpeed="10" />
    <vehicle id="W_E_47" type="standard_car" route="W_E" depart="190" departLane="random" departSpeed="10" />
    <vehicle id="W_S_48" type="standard_car" route="W_S" depart="190" departLane="random" departSpeed="10" />
    <vehicle id="E_N_49" type="standard_car" route="E_N" depart="198" departLane="random" departSpeed="10" />
    <vehicle id="E_N_50" type="standard_car" route="E_N" depart="208" departLane="random" departSpeed="10" />
    <vehicle id="N_S_1_51" type="standard_car" route="N_S_1" depart="211" departLane="random" departSpeed="10" />
    <vehicle id="S_E_52" type="standard_car" route="S_E" depart="213" departLane="random" departSpeed="10" />
    <vehicle id="S_E_53" type="standard_car" route="S_E" depart="217" departLane="random" departSpeed="10" />
    <vehicle id="E_W_54" type="standard_car" route="E_W" depart="219" departLane="random" departSpeed="10" />
    <vehicle id="W_S_55" type="standard_car" route="W_S" depart="220" departLane="random" departSpeed="10" />
    <vehicle id="N_S_2_56" type="standard_car" route="N_S_2" depart="221" departLane="random" departSpeed="10" />
    <vehicle id="S_N_1_57" type="standard_car" route="S_N_1" depart="223" departLane="random" departSpeed="10" />
    <vehicle id="N_W_58" type="standard_car" route="N_W" depart="223" departLane="random" departSpeed="10" />
    <vehicle id="N_W_59" type="standard_car" route="N_W" depart="224" departLane="random" departSpeed="10" />
    <vehicle id="N_W_60" type="standard_car" route="N_W" depart="225" departLane="random" departSpeed="10" />
    <vehicle id="N_S_1_61" type="standard_car" route="N_S_1" depart="225" departLane="random" departSpeed="10" />
    <vehicle id="E_N_62" type="standard_car" route="E_N" depart="225" departLane="random" departSpeed="10" />
    <vehicle id="emergency_3" type="emergency" route="E_W" depart="227" departLane="random" departSpeed="10" />
    <vehicle id="E_W_63" type="standard_car" route="E_W" depart="229" departLane="random" departSpeed="10" />
    <vehicle id="E_W_64" type="standard_car" route="E_W" depart="234" departLane="random" departSpeed="10" />
    <vehicle id="S_N_2_65" type="standard_car" route="S_N_2" depart="234" departLane="random" departSpeed="10" />
    <vehicle id="N_S_2_66" type="standard_car" route="N_S_2" depart="236" departLane="random" departSpeed="10" />
    <vehicle id="S_N_2_67" type="standard_car" route="S_N_2" depart="240" departLane="random" departSpeed="10" />
    <vehicle id="W_S_68" type="standard_car" route="W_S" depart="241" departLane="random" departSpeed="10" />
    <vehicle id="N_S_1_69" type="standard_car" route="N_S_1" depart="241" departLane="random" departSpeed="10" />
    <vehicle id="N_S_1_70" type="standard_car" route="N_S_1" depart="242" departLane="random" departSpeed="10" />
    <vehicle id="N_W_71" type="standard_car" route="N_W" depart="243" departLane="random" departSpeed="10" />
    <vehicle id="N_W_72" type="standard_car" route="N_W" depart="246" departLane="random" departSpeed="10" />
    <vehicle id="S_N_1_73" type="standard_car" route="S_N_1" depart="247" departLane="random" departSpeed="10" />
    <vehicle id="N_W_74" type="standard_car" route="N_W" depart="252" departLane="random" departSpeed="10" />
    <vehicle id="N_S_1_75" type="standard_car" route="N_S_1" depart="255" departLane="random" departSpeed="10" />
    <vehicle id="S_N_1_76" type="standard_car" route="S_N_1" depart="256" departLane="random" departSpeed="10" />
    <vehicle id="N_S_2_77" type="standard_car" route="N_S_2" depart="256" departLane="random" departSpeed="10" />
    <vehicle id="S_E_78" type="standard_car" route="S_E" depart="261" departLane="random" departSpeed="10" />
    <vehicle id="E_N_79" type="standard_car" route="E_N" depart="262" departLane="random" departSpeed="10" />
    <vehicle id="S_N_1_80" type="standard_car" route="S_N_1" depart="263" departLane="random" departSpeed="10" />
    <vehicle id="N_W_81" type="standard_car" route="N_W" depart="263" departLane="random" departSpeed="10" />
    <vehicle id="S_N_1_82" type="standard_car" route="S_N_1" depart="263" departLane="random" departSpeed="10" />
    <vehicle id="E_W_83" type="standard_car" route="E_W" depart="273" departLane="random" departSpeed="10" />
    <vehicle id="W_S_84" type="standard_car" route="W_S" depart="274" departLane="random" departSpeed="10" />
    <vehicle id="S_N_1_85" type="standard_car" route="S_N_1" depart="275" departLane="random" departSpeed="10" />
    <vehicle id="W_S_86" type="standard_car" route="W_S" depart="279" departLane="random" departSpeed="10" />
    <vehicle id="S_N_1_87" type="standard_car" route="S_N_1" depart="281" departLane="random" departSpeed="10" />
    <vehicle id="W_E_88" type="standard_car" route="W_E" depart="283" departLane="random" departSpeed="10" />
    <vehicle id="E_N_89" type="standard_car" route="E_N" depart="285" departLane="random" departSpeed="10" />
    <vehicle id="N_S_1_90" type="standard_car" route="N_S_1" depart="286" departLane="random" departSpeed="10" />
    <vehicle id="S_N_2_91" type="standard_car" route="S_N_2" depart="287" departLane="random" departSpeed="10" />
    <vehicle id="S_N_1_92" type="standard_car" route="S_N_1" depart="289" departLane="random" departSpeed="10" />
    <vehicle id="N_S_1_93" type="standard_car" route="N_S_1" depart="294" departLane="random" departSpeed="10" />
    <vehicle id="W_E_94" type="standard_car" route="W_E" depart="294" departLane="random" departSpeed="10" />
    <vehicle id="W_S_95" type="standard_car" route="W_S" depart="294" departLane="random" departSpeed="10" />
    <vehicle id="N_S_2_96" type="standard_car" route="N_S_2" depart="295" departLane="random" departSpeed="10" />
    <vehicle id="S_N_2_97" type="standard_car" route="S_N_2" depart="296" departLane="random" departSpeed="10" />
    <vehicle id="W_E_98" type="standard_car" route="W_E" depart="298" departLane="random" departSpeed="10" />
    <vehicle id="N_W_99" type="standard_car" route="N_W" depart="298" departLane="random" departSpeed="10" />
    <vehicle id="S_N_2_100" type="standard_car" route="S_N_2" depart="299" departLane="random" departSpeed="10" />
    <vehicle id="E_W_101" type="standard_car" route="E_W" depart="301" departLane="random" departSpeed="10" />
    <vehicle id="W_E_102" type="standard_car" route="W_E" depart="303" departLane="random" departSpeed="10" />
    <vehicle id="S_E_103" type="standard_car" route="S_E" depart="304" departLane="random" departSpeed="10" />
    <vehicle id="S_N_1_104" type="standard_car" route="S_N_1" depart="310" departLane="random" departSpeed="10" />
    <vehicle id="S_N_2_105" type="standard_car" route="S_N_2" depart="311" departLane="random" departSpeed="10" />
    <vehicle id="E_W_106" type="standard_car" route="E_W" depart="311" departLane="random" departSpeed="10" />
    <vehicle id="N_S_1_107" type="standard_car" route="N_S_1" depart="312" departLane="random" departSpeed="10" />
    <vehicle id="S_N_2_108" type="standard_car" route="S_N_2" depart="313" departLane="random" departSpeed="10" />
    <vehicle id="N_S_1_109" type="standard_car" route="N_S_1" depart="316" departLane="random" departSpeed="10" />
    <vehicle id="N_W_110" type="standard_car" route="N_W" depart="318" departLane="random" departSpeed="10" />
    <vehicle id="S_E_111" type="standard_car" route="S_E" depart="318" departLane="random" departSpeed="10" />
    <vehicle id="N_S_1_112" type="standard_car" route="N_S_1" depart="320" departLane="random" departSpeed="10" />
    <vehicle id="W_E_113" type="standard_car" route="W_E" depart="320" departLane="random" departSpeed="10" />
    <vehicle id="N_S_1_114" type="standard_car" route="N_S_1" depart="322" departLane="random" departSpeed="10" />
    <vehicle id="W_S_115" type="standard_car" route="W_S" depart="324" departLane="random" departSpeed="10" />
    <vehicle id="S_N_1_116" type="standard_car" route="S_N_1" depart="326" departLane="random" departSpeed="10" />
    <vehicle id="S_N_1_117" type="standard_car" route="S_N_1" depart="330" departLane="random" departSpeed="10" />
    <vehicle id="N_S_1_118" type="standard_car" route="N_S_1" depart="330" departLane="random" departSpeed="10" />
    <vehicle id="N_S_1_119" type="standard_car" route="N_S_1" depart="330" departLane="random" departSpeed="10" />
    <vehicle id="W_S_120" type="standard_car" route="W_S" depart="330" departLane="random" departSpeed="10" />
    <vehicle id="N_S_1_121" type="standard_car" route="N_S_1" depart="335" departLane="random" departSpeed="10" />
    <vehicle id="N_S_1_122" type="standard_car" route="N_S_1" depart="336" departLane="random" departSpeed="10" />
    <vehicle id="N_S_2_123" type="standard_car" route="N_S_2" depart="336" departLane="random" departSpeed="10" />
    <vehicle id="S_N_1_124" type="standard_car" route="S_N_1" depart="337" departLane="random" departSpeed="10" />
    <vehicle id="W_E_125" type="standard_car" route="W_E" depart="337" departLane="random" departSpeed="10" />
    <vehicle id="S_N_2_126" type="standard_car" route="S_N_2" depart="337" departLane="random" departSpeed="10" />
    <vehicle id="N_S_2_127" type="standard_car" route="N_S_2" depart="338" departLane="random" departSpeed="10" />
    <vehicle id="S_E_128" type="standard_car" route="S_E" depart="341" departLane="random" departSpeed="10" />
    <vehicle id="S_N_2_129" type="standard_car" route="S_N_2" depart="344" departLane="random" departSpeed="10" />
    <vehicle id="E_W_130" type="standard_car" route="E_W" depart="345" departLane="random" departSpeed="10" />
    <vehicle id="N_S_1_131" type="standard_car" route="N_S_1" depart="350" departLane="random" departSpeed="10" />
    <vehicle id="N_S_2_132" type="standard_car" route="N_S_2" depart="350" departLane="random" departSpeed="10" />
    <vehicle id="N_S_1_133" type="standard_car" route="N_S_1" depart="351" departLane="random" departSpeed="10" />
    <vehicle id="N_S_2_134" type="standard_car" route="N_S_2" depart="353" departLane="random" departSpeed="10" />
    <vehicle id="N_S_1_135" type="standard_car" route="N_S_1" depart="355" departLane="random" departSpeed="10" />
    <vehicle id="N_S_2_136" type="standard_car" route="N_S_2" depart="356" departLane="random" departSpeed="10" />
    <vehicle id="emergency_4" type="emergency" route="S_E" depart="356" departLane="random" departSpeed="10" />
    <vehicle id="W_S_137" type="standard_car" route="W_S" depart="358" departLane="random" departSpeed="10" />
    <vehicle id="S_E_138" type="standard_car" route="S_E" depart="361" departLane="random" departSpeed="10" />
    <vehicle id="N_W_139" type="standard_car" route="N_W" depart="361" departLane="random" departSpeed="10" />
    <vehicle id="S_N_2_140" type="standard_car" route="S_N_2" depart="362" departLane="random" departSpeed="10" />
    <vehicle id="N_S_1_141" type="standard_car" route="N_S_1" depart="363" departLane="random" departSpeed="10" />
    <vehicle id="N_W_142" type="standard_car" route="N_W" depart="363" departLane="random" departSpeed="10" />
    <vehicle id="S_N_2_143" type="standard_car" route="S_N_2" depart="363" departLane="random" departSpeed="10" />
    <vehicle id="N_S_2_144" type="standard_car" route="N_S_2" depart="366" departLane="random" departSpeed="10" />
    <vehicle id="S_N_2_145" type="standard_car" route="S_N_2" depart="367" departLane="random" departSpeed="10" />
    <vehicle id="N_S_2_146" type="standard_car" route="N_S_2" depart="369" departLane="random" departSpeed="10" />
    <vehicle id="N_W_147" type="standard_car" route="N_W" depart="371" departLane="random" departSpeed="10" />
    <vehicle id="E_W_148" type="standard_car" route="E_W" depart="376" departLane="random" departSpeed="10" />
    <vehicle id="W_S_149" type="standard_car" route="W_S" depart="377" departLane="random" departSpeed="10" />
    <vehicle id="N_S_2_150" type="standard_car" route="N_S_2" depart="377" departLane="random" departSpeed="10" />
    <vehicle id="E_W_151" type="standard_car" route="E_W" depart="378" departLane="random" departSpeed="10" />
    <vehicle id="E_W_152" type="standard_car" route="E_W" depart="378" departLane="random" departSpeed="10" />
    <vehicle id="W_E_153" type="standard_car" route="W_E" depart="379" departLane="random" departSpeed="10" />
    <vehicle id="N_S_1_154" type="standard_car" route="N_S_1" depart="379" departLane="random" departSpeed="10" />
    <vehicle id="E_N_155" type="standard_car" route="E_N" depart="382" departLane="random" departSpeed="10" />
    <vehicle id="E_W_156" type="standard_car" route="E_W" depart="382" departLane="random" departSpeed="10" />
    <vehicle id="S_N_1_157" type="standard_car" route="S_N_1" depart="383" departLane="random" departSpeed="10" />
    <vehicle id="E_W_158" type="standard_car" route="E_W" depart="387" departLane="random" departSpeed="10" />
    <vehicle id="E_W_159" type="standard_car" route="E_W" depart="389" departLane="random" departSpeed="10" />
    <vehicle id="S_E_160" type="standard_car" route="S_E" depart="392" departLane="random" departSpeed="10" />
    <vehicle id="N_S_1_161" type="standard_car" route="N_S_1" depart="393" departLane="random" departSpeed="10" />
    <vehicle id="N_S_2_162" type="standard_car" route="N_S_2" depart="394" departLane="random" departSpeed="10" />
    <vehicle id="E_N_163" type="standard_car" route="E_N" depart="396" departLane="random" departSpeed="10" />
    <vehicle id="S_N_1_164" type="standard_car" route="S_N_1" depart="398" departLane="random" departSpeed="10" />
    <vehicle id="W_E_165" type="standard_car" route="W_E" depart="398" departLane="random" departSpeed="10" />
    <vehicle id="E_N_166" type="standard_car" route="E_N" depart="399" departLane="random" departSpeed="10" />
    <vehicle id="S_N_2_167" type="standard_car" route="S_N_2" depart="401" departLane="random" departSpeed="10" />
    <vehicle id="N_S_2_168" type="standard_car" route="N_S_2" depart="402" departLane="random" departSpeed="10" />
    <vehicle id="S_E_169" type="standard_car" route="S_E" depart="402" departLane="random" departSpeed="10" />
    <vehicle id="S_N_2_170" type="standard_car" route="S_N_2" depart="403" departLane="random" departSpeed="10" />
    <vehicle id="S_E_171" type="standard_car" route="S_E" depart="405" departLane="random" departSpeed="10" />
    <vehicle id="N_S_1_172" type="standard_car" route="N_S_1" depart="406" departLane="random" departSpeed="10" />
    <vehicle id="E_W_173" type="standard_car" route="E_W" depart="408" departLane="random" departSpeed="10" />
    <vehicle id="E_W_174" type="standard_car" route="E_W" depart="409" departLane="random" departSpeed="10" />
    <vehicle id="E_N_175" type="standard_car" route="E_N" depart="409" departLane="random" departSpeed="10" />
    <vehicle id="W_E_176" type="standard_car" route="W_E" depart="411" departLane="random" departSpeed="10" />
    <vehicle id="S_N_2_177" type="standard_car" route="S_N_2" depart="411" departLane="random" departSpeed="10" />
    <vehicle id="N_S_1_178" type="standard_car" route="N_S_1" depart="412" departLane="random" departSpeed="10" />
    <vehicle id="N_S_1_179" type="standard_car" route="N_S_1" depart="413" departLane="random" departSpeed="10" />
    <vehicle id="E_W_180" type="standard_car" route="E_W" depart="413" departLane="random" departSpeed="10" />
    <vehicle id="W_E_181" type="standard_car" route="W_E" depart="414" departLane="random" departSpeed="10" />
    <vehicle id="W_E_182" type="standard_car" route="W_E" depart="415" departLane="random" departSpeed="10" />
    <vehicle id="E_N_183" type="standard_car" route="E_N" depart="415" departLane="random" departSpeed="10" />
    <vehicle id="E_N_184" type="standard_car" route="E_N" depart="420" departLane="random" departSpeed="10" />
    <vehicle id="N_W_185" type="standard_car" route="N_W" depart="421" departLane="random" departSpeed="10" />
    <vehicle id="S_N_2_186" type="standard_car" route="S_N_2" depart="421" departLane="random" departSpeed="10" />
    <vehicle id="W_E_187" type="standard_car" route="W_E" depart="422" departLane="random" departSpeed="10" />
    <vehicle id="S_N_1_188" type="standard_car" route="S_N_1" depart="422" departLane="random" departSpeed="10" />
    <vehicle id="S_N_1_189" type="standard_car" route="S_N_1" depart="423" departLane="random" departSpeed="10" />
    <vehicle id="S_N_1_190" type="standard_car" route="S_N_1" depart="424" departLane="random" departSpeed="10" />
    <vehicle id="N_S_2_191" type="standard_car" route="N_S_2" depart="425" departLane="random" departSpeed="10" />
    <vehicle id="W_E_192" type="standard_car" route="W_E" depart="425" departLane="random" departSpeed="10" />
    <vehicle id="W_E_193" type="standard_car" route="W_E" depart="425" departLane="random" departSpeed="10" />
    <vehicle id="W_S_194" type="standard_car" route="W_S" depart="426" departLane="random" departSpeed="10" />
    <vehicle id="N_S_1_195" type="standard_car" route="N_S_1" depart="426" departLane="random" departSpeed="10" />
    <vehicle id="S_N_1_196" type="standard_car" route="S_N_1" depart="428" departLane="random" departSpeed="10" />
    <vehicle id="N_S_2_197" type="standard_car" route="N_S_2" depart="429" departLane="random" departSpeed="10" />
    <vehicle id="N_S_2_198" type="standard_car" route="N_S_2" depart="431" departLane="random" departSpeed="10" />
    <vehicle id="W_E_199" type="standard_car" route="W_E" depart="432" departLane="random" departSpeed="10" />
    <vehicle id="N_S_1_200" type="standard_car" route="N_S_1" depart="432" departLane="random" departSpeed="10" />
    <vehicle id="N_W_201" type="standard_car" route="N_W" depart="436" departLane="random" departSpeed="10" />
    <vehicle id="E_N_202" type="standard_car" route="E_N" depart="439" departLane="random" departSpeed="10" />
    <vehicle id="N_S_1_203" type="standard_car" route="N_S_1" depart="439" departLane="random" departSpeed="10" />
    <vehicle id="S_N_1_204" type="standard_car" route="S_N_1" depart="440" departLane="random" departSpeed="10" />
    <vehicle id="S_E_205" type="standard_car" route="S_E" depart="440" departLane="random" departSpeed="10" />
    <vehicle id="S_N_1_206" type="standard_car" route="S_N_1" depart="440" departLane="random" departSpeed="10" />
    <vehicle id="E_W_207" type="standard_car" route="E_W" depart="443" departLane="random" departSpeed="10" />
    <vehicle id="emergency_5" type="emergency" route="N_W" depart="443" departLane="random" departSpeed="10" />
    <vehicle id="E_W_208" type="standard_car" route="E_W" depart="446" departLane="random" departSpeed="10" />
    <vehicle id="N_S_2_209" type="standard_car" route="N_S_2" depart="446" departLane="random" departSpeed="10" />
    <vehicle id="W_E_210" type="standard_car" route="W_E" depart="446" departLane="random" departSpeed="10" />
    <vehicle id="N_S_1_211" type="standard_car" route="N_S_1" depart="448" departLane="random" departSpeed="10" />
    <vehicle id="S_N_1_212" type="standard_car" route="S_N_1" depart="448" departLane="random" departSpeed="10" />
    <vehicle id="N_S_1_213" type="standard_car" route="N_S_1" depart="448" departLane="random" departSpeed="10" />
    <vehicle id="S_N_2_214" type="standard_car" route="S_N_2" depart="453" departLane="random" departSpeed="10" />
    <vehicle id="S_E_215" type="standard_car" route="S_E" depart="453" departLane="random" departSpeed="10" />
    <vehicle id="W_E_216" type="standard_car" route="W_E" depart="453" departLane="random" departSpeed="10" />
    <vehicle id="W_E_217" type="standard_car" route="W_E" depart="454" departLane="random" departSpeed="10" />
    <vehicle id="N_W_218" type="standard_car" route="N_W" depart="455" departLane="random" departSpeed="10" />
    <vehicle id="W_E_219" type="standard_car" route="W_E" depart="455" departLane="random" departSpeed="10" />
    <vehicle id="S_N_1_220" type="standard_car" route="S_N_1" depart="457" departLane="random" departSpeed="10" />
    <vehicle id="N_S_2_221" type="standard_car" route="N_S_2" depart="461" departLane="random" departSpeed="10" />
    <vehicle id="N_S_1_222" type="standard_car" route="N_S_1" depart="461" departLane="random" departSpeed="10" />
    <vehicle id="E_W_223" type="standard_car" route="E_W" depart="464" departLane="random" departSpeed="10" />
    <vehicle id="N_S_2_224" type="standard_car" route="N_S_2" depart="465" departLane="random" departSpeed="10" />
    <vehicle id="S_N_1_225" type="standard_car" route="S_N_1" depart="465" departLane="random" departSpeed="10" />
    <vehicle id="N_W_226" type="standard_car" route="N_W" depart="465" departLane="random" departSpeed="10" />
    <vehicle id="W_E_227" type="standard_car" route="W_E" depart="468" departLane="random" departSpeed="10" />
    <vehicle id="S_N_2_228" type="standard_car" route="S_N_2" depart="468" departLane="random" departSpeed="10" />
    <vehicle id="N_S_1_229" type="standard_car" route="N_S_1" depart="470" departLane="random" departSpeed="10" />
    <vehicle id="W_E_230" type="standard_car" route="W_E" depart="470" departLane="random" departSpeed="10" />
    <vehicle id="emergency_6" type="emergency" route="E_N" depart="470" departLane="random" departSpeed="10" />
    <vehicle id="N_S_2_231" type="standard_car" route="N_S_2" depart="471" departLane="random" departSpeed="10" />
    <vehicle id="N_W_232" type="standard_car" route="N_W" depart="475" departLane="random" departSpeed="10" />
    <vehicle id="W_E_233" type="standard_car" route="W_E" depart="476" departLane="random" departSpeed="10" />
    <vehicle id="S_N_1_234" type="standard_car" route="S_N_1" depart="479" departLane="random" departSpeed="10" />
    <vehicle id="S_N_2_235" type="standard_car" route="S_N_2" depart="481" departLane="random" departSpeed="10" />
    <vehicle id="E_W_236" type="standard_car" route="E_W" depart="483" departLane="random" departSpeed="10" />
    <vehicle id="S_N_1_237" type="standard_car" route="S_N_1" depart="485" departLane="random" departSpeed="10" />
    <vehicle id="N_S_1_238" type="standard_car" route="N_S_1" depart="486" departLane="random" departSpeed="10" />
    <vehicle id="N_S_1_239" type="standard_car" route="N_S_1" depart="486" departLane="random" departSpeed="10" />
    <vehicle id="S_N_1_240" type="standard_car" route="S_N_1" depart="487" departLane="random" departSpeed="10" />
    <vehicle id="S_N_1_241" type="standard_car" route="S_N_1" depart="489" departLane="random" departSpeed="10" />
    <vehicle id="E_W_242" type="standard_car" route="E_W" depart="489" departLane="random" departSpeed="10" />
    <vehicle id="N_S_1_243" type="standard_car" route="N_S_1" depart="490" departLane="random" departSpeed="10" />
    <vehicle id="N_S_2_244" type="standard_car" route="N_S_2" depart="490" departLane="random" departSpeed="10" />
    <vehicle id="E_W_245" type="standard_car" route="E_W" depart="493" departLane="random" departSpeed="10" />
    <vehicle id="E_W_246" type="standard_car" route="E_W" depart="493" departLane="random" departSpeed="10" />
    <vehicle id="N_S_1_247" type="standard_car" route="N_S_1" depart="493" departLane="random" departSpeed="10" />
    <vehicle id="N_S_2_248" type="standard_car" route="N_S_2" depart="494" departLane="random" departSpeed="10" />
    <vehicle id="E_N_249" type="standard_car" route="E_N" depart="494" departLane="random" departSpeed="10" />
    <vehicle id="S_N_1_250" type="standard_car" route="S_N_1" depart="494" departLane="random" departSpeed="10" />
    <vehicle id="N_S_2_251" type="standard_car" route="N_S_2" depart="495" departLane="random" departSpeed="10" />