<routes>
            <vType id="emergency" accel="3.0" decel="6.0" color="1,0,0" maxSpeed="20" sigma="0.5" emergency="true" />
            <vType id="standard_car" accel="1.0" decel="4.5" length="5.0" minGap="2.5" maxSpeed="25" sigma="0.5" />
            <route id="E_W" edges="2_E2TL 2_TL2W TL2W" />
            <route id="W_E" edges="W2TL TL2E 2_TL2E" />
            <route id="N_S_1" edges="2_N2TL 2_TL2S" />
            <route id="N_S_2" edges="N2TL TL2S" />
            <route id="S_N_1" edges="S2TL TL2N" />
            <route id="S_N_2" edges="2_S2TL 2_TL2N" />
            <route id="N_W" edges="2_N2TL 2_TL2W" />
            <route id="S_E" edges="S2TL TL2E" />
            <route id="E_N" edges="2_E2TL 2_TL2N" />
            <route id="W_S" edges="W2TL TL2E 2_TL2S" />
    <vehicle id="S_N_2_0" type="standard_car" route="S_N_2" depart="9" departLane="random" departSpeed="10" />
    <vehicle id="W_S_1" type="standard_car" route="W_S" depart="10" departLane="random" departSpeed="10" />
    <vehicle id="E_N_2" type="standard_car" route="E_N" depart="56" departLane="random" departSpeed="10" />
    <vehicle id="E_W_3" type="standard_car" route="E_W" depart="75" departLane="random" departSpeed="10" />
    <vehicle id="N_W_4" type="standard_car" route="N_W" depart="76" departLane="random" departSpeed="10" />
    <vehicle id="N_S_1_5" type="standard_car" route="N_S_1" depart="93" departLane="random" departSpeed="10" />
    <vehicle id="W_E_6" type="standard_car" route="W_E" depart="100" departLane="random" departSpeed="10" />
    <vehicle id="S_N_1_7" type="standard_car" route="S_N_1" depart="111" departLane="random" departSpeed="10" />
    <vehicle id="S_E_8" type="standard_car" route="S_E" depart="112" departLane="random" departSpeed="10" />
    <vehicle id="N_S_2_9" type="standard_car" route="N_S_2" depart="115" departLane="random" departSpeed="10" />
    <vehicle id="E_W_10" type="standard_car" route="E_W" depart="121" departLane="random" departSpeed="10" />
    <vehicle id="S_N_2_11" type="standard_car" route="S_N_2" depart="130" departLane="random" departSpeed="10" />
    <vehicle id="S_E_12" type="standard_car" route="S_E" depart="130" departLane="random" departSpeed="10" />
    <vehicle id="W_S_13" type="standard_car" route="W_S" depart="130" departLane="random" departSpeed="10" />
    <vehicle id="N_S_1_14" type="standard_car" route="N_S_1" depart="131" departLane="random" departSpeed="10" />
    <vehicle id="S_N_1_15" type="standard_car" route="S_N_1" depart="136" departLane="random" departSpeed="10" />
    <vehicle id="N_S_1_16" type="standard_car" route="N_S_1" depart="138" departLane="random" departSpeed="10" />
    <vehicle id="E_W_17" type="standard_car" route="E_W" depart="139" departLane="random" departSpeed="10" />
    <vehicle id="N_S_1_18" type="standard_car" route="N_S_1" depart="143" departLane="random" departSpeed="10" />
    <vehicle id="S_E_19" type="standard_car" route="S_E" depart="153" departLane="random" departSpeed="10" />
    <vehicle id="W_E_20" type="standard_car" route="W_E" depart="155" departLane="random" departSpeed="10" />
    <vehicle id="N_W_21" type="standard_car" route="N_W" depart="158" departLane="random" departSpeed="10" />
    <vehicle id="N_W_22" type="standard_car" route="N_W" depart="178" departLane="random" departSpeed="10" />
    <vehicle id="S_N_2_23" type="standard_car" route="S_N_2" depart="181" departLane="random" departSpeed="10" />
    <vehicle id="N_S_1_24" type="standard_car" route="N_S_1" depart="181" departLane="random" departSpeed="10" />
    <vehicle id="S_N_2_25" type="standard_car" route="S_N_2" depart="181" departLane="random" departSpeed="10" />
    <vehicle id="N_W_26" type="standard_car" route="N_W" depart="184" departLane="random" departSpeed="10" />
    <vehicle id="N_S_2_27" type="standard_car" route="N_S_2" depart="185" departLane="random" departSpeed="10" />
    <vehicle id="N_S_2_28" type="standard_car" route="N_S_2" depart="190" departLane="random" departSpeed="10" />
    <vehicle id="S_N_1_29" type="standard_car" route="S_N_1" depart="193" departLane="random" departSpeed="10" />
    <vehicle id="S_N_1_30" type="standard_car" route="S_N_1" depart="194" departLane="random" departSpeed="10" />
    <vehicle id="S_N_1_31" type="standard_car" route="S_N_1" depart="200" departLane="random" departSpeed="10" />
    <vehicle id="S_E_32" type="standard_car" route="S_E" depart="200" departLane="random" departSpeed="10" />
    <vehicle id="W_E_33" type="standard_car" route="W_E" depart="200" departLane="random" departSpeed="10" />
    <vehicle id="N_S_1_34" type="standard_car" route="N_S_1" depart="209" departLane="random" departSpeed="10" />
    <vehicle id="S_N_1_35" type="standard_car" route="S_N_1" depart="211" departLane="random" departSpeed="10" />
    <vehicle id="E_N_36" type="standard_car" route="E_N" depart="215" departLane="random" departSpeed="10" />
    <vehicle id="S_E_37" type="standard_car" route="S_E" depart="216" departLane="random" departSpeed="10" />
    <vehicle id="S_N_1_38" type="standard_car" route="S_N_1" depart="227" departLane="random" departSpeed="10" />
    <vehicle id="N_W_39" type="standard_car" route="N_W" depart="233" departLane="random" departSpeed="10" />
    <vehicle id="W_S_40" type="standard_car" route="W_S" depart="236" departLane="random" departSpeed="10" />
    <vehicle id="N_S_2_41" type="standard_car" route="N_S_2" depart="241" departLane="random" departSpeed="10" />
    <vehicle id="S_N_1_42" type="standard_car" route="S_N_1" depart="241" departLane="random" departSpeed="10" />
    <vehicle id="W_S_43" type="standard_car" route="W_S" depart="242" departLane="random" departSpeed="10" />
    <vehicle id="N_S_2_44" type="standard_car" route="N_S_2" depart="251" departLane="random" departSpeed="10" />
    <vehicle id="E_N_45" type="standard_car" route="E_N" depart="251" departLane="random" departSpeed="10" />
    <vehicle id="E_W_46" type="standard_car" route="E_W" depart="253" departLane="random" departSpeed="10" />
    <vehicle id="S_N_2_47" type="standard_car" route="S_N_2" depart="256" departLane="random" departSpeed="10" />
    <vehicle id="N_S_1_48" type="standard_car" route="N_S_1" depart="263" departLane="random" departSpeed="10" />
    <vehicle id="E_N_49" type="standard_car" route="E_N" depart="263" departLane="random" departSpeed="10" />
    <vehicle id="S_E_50" type="standard_car" route="S_E" depart="263" departLane="random" departSpeed="10" />
    <vehicle id="S_N_1_51" type="standard_car" route="S_N_1" depart="263" departLane="random" departSpeed="10" />
    <vehicle id="W_E_52" type="standard_car" route="W_E" depart="264" departLane="random" departSpeed="10" />
    <vehicle id="E_N_53" type="standard_car" route="E_N" depart="273" departLane="random" departSpeed="10" />
    <vehicle id="S_E_54" type="standard_car" route="S_E" depart="279" departLane="random" departSpeed="10" />
    <vehicle id="S_N_2_55" type="standard_car" route="S_N_2" depart="279" departLane="random" departSpeed="10" />
    <vehicle id="N_S_1_56" type="standard_car" route="N_S_1" depart="280" departLane="random" departSpeed="10" />
    <vehicle id="S_N_1_57" type="standard_car" route="S_N_1" depart="281" departLane="random" departSpeed="10" />
    <vehicle id="W_E_58" type="standard_car" route="W_E" depart="281" departLane="random" departSpeed="10" />
    <vehicle id="W_E_59" type="standard_car" route="W_E" depart="285" departLane="random" departSpeed="10" />
    <vehicle id="S_N_1_60" type="standard_car" route="S_N_1" depart="286" departLane="random" departSpeed="10" />
    <vehicle id="N_S_2_61" type="standard_car" route="N_S_2" depart="292" departLane="random" departSpeed="10" />
    <vehicle id="E_N_62" type="standard_car" route="E_N" depart="297" departLane="random" departSpeed="10" />
    <vehicle id="N_S_1_63" type="standard_car" route="N_S_1" depart="301" departLane="random" departSpeed="10" />
    <vehicle id="W_S_64" type="standard_car" route="W_S" depart="304" departLane="random" departSpeed="10" />
    <vehicle id="E_W_65" type="standard_car" route="E_W" depart="304" departLane="random" departSpeed="10" />
    <vehicle id="S_N_1_66" type="standard_car" route="S_N_1" depart="307" departLane="random" departSpeed="10" />
    <vehicle id="N_W_67" type="standard_car" route="N_W" depart="312" departLane="random" departSpeed="10" />
    <vehicle id="W_E_68" type="standard_car" route="W_E" depart="313" departLane="random" departSpeed="10" />
    <vehicle id="W_E_69" type="standard_car" route="W_E" depart="314" departLane="random" departSpeed="10" />
    <vehicle id="W_S_70" type="standard_car" route="W_S" depart="321" departLane="random" departSpeed="10" />
    <vehicle id="E_W_71" type="standard_car" route="E_W" depart="321" departLane="random" departSpeed="10" />
    <vehicle id="N_S_1_72" type="standard_car" route="N_S_1" depart="324" departLane="random" departSpeed="10" />
    <vehicle id="W_E_73" type="standard_car" route="W_E" depart="325" departLane="random" departSpeed="10" />
    <vehicle id="N_S_1_74" type="standard_car" route="N_S_1" depart="326" departLane="random" departSpeed="10" />
    <vehicle id="N_W_75" type="standard_car" route="N_W" depart="327" departLane="random" departSpeed="10" />
    <vehicle id="N_S_2_76" type="standard_car" route="N_S_2" depart="327" departLane="random" departSpeed="10" />
    <vehicle id="N_S_1_77" type="standard_car" route="N_S_1" depart="327" departLane="random" departSpeed="10" />
    <vehicle id="N_S_2_78" type="standard_car" route="N_S_2" depart="333" departLane="random" departSpeed="10" />
    <vehicle id="S_E_79" type="standard_car" route="S_E" depart="334" departLane="random" departSpeed="10" />
    <vehicle id="S_N_1_80" type="standard_car" route="S_N_1" depart="335" departLane="random" departSpeed="10" />
    <vehicle id="N_S_1_81" type="standard_car" route="N_S_1" depart="335" departLane="random" departSpeed="10" />
    <vehicle id="W_S_82" type="standard_car" route="W_S" depart="337" departLane="random" departSpeed="10" />
    <vehicle id="S_N_2_83" type="standard_car" route="S_N_2" depart="343" departLane="random" departSpeed="10" />
    <vehicle id="S_N_2_84" type="standard_car" route="S_N_2" depart="353" departLane="random" departSpeed="10" />
    <vehicle id="S_N_2_85" type="standard_car" route="S_N_2" depart="353" departLane="random" departSpeed="10" />
    <vehicle id="E_W_86" type="standard_car" route="E_W" depart="355" departLane="random" departSpeed="10" />
    <vehicle id="N_S_1_87" type="standard_car" route="N_S_1" depart="355" departLane="random" departSpeed="10" />
    <vehicle id="S_N_1_88" type="standard_car" route="S_N_1" depart="357" departLane="random" departSpeed="10" />
    <vehicle id="E_W_89" type="standard_car" route="E_W" depart="357" departLane="random" departSpeed="10" />
    <vehicle id="N_S_2_90" type="standard_car" route="N_S_2" depart="358" departLane="random" departSpeed="10" />
    <vehicle id="N_S_1_91" type="standard_car" route="N_S_1" depart="366" departLane="random" departSpeed="10" />
    <vehicle id="E_N_92" type="standard_car" route="E_N" depart="368" departLane="random" departSpeed="10" />
    <vehicle id="N_S_2_93" type="standard_car" route="N_S_2" depart="372" departLane="random" departSpeed="10" />
    <vehicle id="W_E_94" type="standard_car" route="W_E" depart="372" departLane="random" departSpeed="10" />
    <vehicle id="N_S_1_95" type="standard_car" route="N_S_1" depart="375" departLane="random" departSpeed="10" />
    <vehicle id="W_E_96" type="standard_car" route="W_E" depart="382" departLane="random" departSpeed="10" />
    <vehicle id="N_S_1_97" type="standard_car" route="N_S_1" depart="383" departLane="random" departSpeed="10" />
    <vehicle id="W_E_98" type="standard_car" route="W_E" depart="386" departLane="random" departSpeed="10" />
    <vehicle id="N_S_1_99" type="standard_car" route="N_S_1" depart="388" departLane="random" departSpeed="10" />
    <vehicle id="N_S_1_100" type="standard_car" route="N_S_1" depart="396" departLane="random" departSpeed="10" />
    <vehicle id="S_N_2_101" type="standard_car" route="S_N_2" depart="399" departLane="random" departSpeed="10" />
    <vehicle id="E_W_102" type="standard_car" route="E_W" depart="401" departLane="random" departSpeed="10" />
    <vehicle id="E_W_103" type="standard_car" route="E_W" depart="401" departLane="random" departSpeed="10" />
    <vehicle id="N_S_2_104" type="standard_car" route="N_S_2" depart="404" departLane="random" departSpeed="10" />
    <vehicle id="N_W_105" type="standard_car" route="N_W" depart="409" departLane="random" departSpeed="10" />
    <vehicle id="N_W_106" type="standard_car" route="N_W" depart="409" departLane="random" departSpeed="10" />
    <vehicle id="W_E_107" type="standard_car" route="W_E" depart="409" departLane="random" departSpeed="10" />
    <vehicle id="N_S_2_108" type="standard_car" route="N_S_2" depart="410" departLane="random" departSpeed="10" />
    <vehicle id="S_E_109" type="standard_car" route="S_E" depart="412" departLane="random" departSpeed="10" />
    <vehicle id="S_N_2_110" type="standard_car" route="S_N_2" depart="412" departLane="random" departSpeed="10" />
    <vehicle id="W_S_111" type="standard_car" route="W_S" depart="412" departLane="random" departSpeed="10" />
    <vehicle id="W_S_112" type="standard_car" route="W_S" depart="413" departLane="random" departSpeed="10" />
    <vehicle id="W_E_113" type="standard_car" route="W_E" depart="416" departLane="random" departSpeed="10" />
    <vehicle id="N_S_2_114" type="standard_car" route="N_S_2" depart="418" departLane="random" departSpeed="10" />
    <vehicle id="E_W_115" type="standard_car" route="E_W" depart="420" departLane="random" departSpeed="10" />
    <vehicle id="S_N_2_116" type="standard_car" route="S_N_2" depart="422" departLane="random" departSpeed="10" />
    <vehicle id="W_E_117" type="standard_car" route="W_E" depart="423" departLane="random" departSpeed="10" />
    <vehicle id="W_E_118" type="standard_car" route="W_E" depart="423" departLane="random" departSpeed="10" />
    <vehicle id="S_N_2_119" type="standard_car" route="S_N_2" depart="430" departLane="random" departSpeed="10" />
    <vehicle id="S_E_120" type="standard_car" route="S_E" depart="432" departLane="random" departSpeed="10" />
    <vehicle id="N_S_1_121" type="standard_car" route="N_S_1" depart="433" departLane="random" departSpeed="10" />
    <vehicle id="S_N_2_122" type="standard_car" route="S_N_2" depart="434" departLane="random" departSpeed="10" />
    <vehicle id="N_S_2_123" type="standard_car" route="N_S_2" depart="435" departLane="random" departSpeed="10" />
    <vehicle id="E_W_124" type="standard_car" route="E_W" depart="438" departLane="random" departSpeed="10" />
    <vehicle id="S_N_1_125" type="standard_car" route="S_N_1" depart="440" departLane="random" departSpeed="10" />
    <vehicle id="N_S_2_126" type="standard_car" route="N_S_2" depart="442" departLane="random" departSpeed="10" />
    <vehicle id="S_N_1_127" type="standard_car" route="S_N_1" depart="442" departLane="random" departSpeed="10" />
    <vehicle id="W_E_128" type="standard_car" route="W_E" depart="444" departLane="random" departSpeed="10" />
    <vehicle id="N_W_129" type="standard_car" route="N_W" depart="445" departLane="random" departSpeed="10" />
    <vehicle id="E_W_130" type="standard_car" route="E_W" depart="450" departLane="random" departSpeed="10" />
    <vehicle id="N_S_2_131" type="standard_car" route="N_S_2" depart="455" departLane="random" departSpeed="10" />
    <vehicle id="S_N_1_132" type="standard_car" route="S_N_1" depart="455" departLane="random" departSpeed="10" />
    <vehicle id="S_N_2_133" type="standard_car" route="S_N_2" depart="459" departLane="random" departSpeed="10" />
    <vehicle id="N_S_2_134" type="standard_car" route="N_S_2" depart="460" departLane="random" departSpeed="10" />
    <vehicle id="S_N_2_135" type="standard_car" route="S_N_2" depart="463" departLane="random" departSpeed="10" />
    <vehicle id="W_S_136" type="standard_car" route="W_S" depart="467" departLane="random" departSpeed="10" />
    <vehicle id="E_W_137" type="standard_car" route="E_W" depart="469" departLane="random" departSpeed="10" />
    <vehicle id="E_N_138" type="standard_car" route="E_N" depart="469" departLane="random" departSpeed="10" />
    <vehicle id="S_N_1_139" type="standard_car" route="S_N_1" depart="470" departLane="random" departSpeed="10" />
    <vehicle id="S_N_1_140" type="standard_car" route="S_N_1" depart="470" departLane="random" departSpeed="10" />
    <vehicle id="W_S_141" type="standard_car" route="W_S" depart="471" departLane="random" departSpeed="10" />
    <vehicle id="N_S_1_142" type="standard_car" route="N_S_1" depart="473" departLane="random" departSpeed="10" />
    <vehicle id="S_E_143" type="standard_car" route="S_E" depart="475" departLane="random" departSpeed="10" />
    <vehicle id="S_N_2_144" type="standard_car" route="S_N_2" depart="476" departLane="random" departSpeed="10" />
    <vehicle id="N_S_2_145" type="standard_car" route="N_S_2" depart="477" departLane="random" departSpeed="10" />
    <vehicle id="S_N_1_146" type="standard_car" route="S_N_1" depart="480" departLane="random" departSpeed="10" />
    <vehicle id="W_S_147" type="standard_car" route="W_S" depart="480" departLane="random" departSpeed="10" />
    <vehicle id="W_E_148" type="standard_car" route="W_E" depart="482" departLane="random" departSpeed="10" />
    <vehicle id="N_S_2_149" type="standard_car" route="N_S_2" depart="485" departLane="random" departSpeed="10" />
    <vehicle id="W_S_150" type="standard_car" route="W_S" depart="487" departLane="random" departSpeed="10" />
    <vehicle id="E_W_151" type="standard_car" route="E_W" depart="487" departLane="random" departSpeed="10" />
    <vehicle id="S_N_2_152" type="standard_car" route="S_N_2" depart="489" departLane="random" departSpeed="10" />
    <vehicle id="N_S_2_153" type="standard_car" route="N_S_2" depart="495" departLane="random" departSpeed="10" />
    <vehicle id="S_E_154" type="standard_car" route="S_E" depart="497" departLane="random" departSpeed="10" />
    <vehicle id="E_W_155" type="standard_car" route="E_W" depart="499" departLane="random" departSpeed="10" />
    <vehicle id="E_W_156" type="standard_car" route="E_W" depart="500" departLane="random" departSpeed="10" />
    <vehicle id="S_N_2_157" type="standard_car" route="S_N_2" depart="501" departLane="random" departSpeed="10" />
    <vehicle id="W_S_158" type="standard_car" route="W_S" depart="503" departLane="random" departSpeed="10" />
    <vehicle id="S_E_159" type="standard_car" route="S_E" depart="506" departLane="random" departSpeed="10" />
    <vehicle id="E_W_160" type="standard_car" route="E_W" depart="509" departLane="random" departSpeed="10" />
    <vehicle id="S_E_161" type="standard_car" route="S_E" depart="511" departLane="random" departSpeed="10" />
    <vehicle id="S_N_2_162" type="standard_car" route="S_N_2" depart="516" departLane="random" departSpeed="10" />
    <vehicle id="N_S_2_163" type="standard_car" route="N_S_2" depart="517" departLane="random" departSpeed="10" />
    <vehicle id="E_W_164" type="standard_car" route="E_W" depart="517" departLane="random" departSpeed="10" />
    <vehicle id="E_W_165" type="standard_car" route="E_W" depart="519" departLane="random" departSpeed="10" />
    <vehicle id="W_S_166" type="standard_car" route="W_S" depart="519" departLane="random" departSpeed="10" />
    <vehicle id="N_S_1_167" type="standard_car" route="N_S_1" depart="520" departLane="random" departSpeed="10" />
    <vehicle id="E_N_168" type="standard_car" route="E_N" depart="520" departLane="random" departSpeed="10" />
    <vehicle id="W_S_169" type="standard_car" route="W_S" depart="521" departLane="random" departSpeed="10" />
    <vehicle id="S_N_2_170" type="standard_car" route="S_N_2" depart="522" departLane="random" departSpeed="10" />
    <vehicle id="S_N_1_171" type="standard_car" route="S_N_1" depart="522" departLane="random" departSpeed="10" />
    <vehicle id="N_W_172" type="standard_car" route="N_W" depart="525" departLane="random" departSpeed="10" />
    <vehicle id="N_S_1_173" type="standard_car" route="N_S_1" depart="527" departLane="random" departSpeed="10" />
    <vehicle id="S_N_1_174" type="standard_car" route="S_N_1" depart="527" departLane="random" departSpeed="10" />
    <vehicle id="S_N_1_175" type="standard_car" route="S_N_1" depart="529" departLane="random" departSpeed="10" />
    <vehicle id="N_S_1_176" type="standard_car" route="N_S_1" depart="529" departLane="random" departSpeed="10" />
    <vehicle id="N_S_2_177" type="standard_car" route="N_S_2" depart="532" departLane="random" departSpeed="10" />
    <vehicle id="W_S_178" type="standard_car" route="W_S" depart="532" departLane="random" departSpeed="10" />
    <vehicle id="S_N_2_179" type="standard_car" route="S_N_2" depart="534" departLane="random" departSpeed="10" />
    <vehicle id="S_N_2_180" type="standard_car" route="S_N_2" depart="535" departLane="random" departSpeed="10" />
    <vehicle id="W_S_181" type="standard_car" route="W_S" depart="535" departLane="random" departSpeed="10" />
    <vehicle id="E_W_182" type="standard_car" route="E_W" depart="539" departLane="random" departSpeed="10" />
    <vehicle id="S_N_1_183" type="standard_car" route="S_N_1" depart="541" departLane="random" departSpeed="10" />
    <vehicle id="W_S_184" type="standard_car" route="W_S" depart="542" departLane="random" departSpeed="10" />
    <vehicle id="W_E_185" type="standard_car" route="W_E" depart="544" departLane="random" departSpeed="10" />
    <vehicle id="N_W_186" type="standard_car" route="N_W" depart="546" departLane="random" departSpeed="10" />
    <vehicle id="E_W_187" type="standard_car" route="E_W" depart="547" departLane="random" departSpeed="10" />
    <vehicle id="S_E_188" type="standard_car" route="S_E" depart="548" departLane="random" departSpeed="10" />
    <vehicle id="N_S_2_189" type="standard_car" route="N_S_2" depart="549" departLane="random" departSpeed="10" />
    <vehicle id="E_W_190" type="standard_car" route="E_W" depart="551" departLane="random" departSpeed="10" />
    <vehicle id="N_S_1_191" type="standard_car" route="N_S_1" depart="553" departLane="random" departSpeed="10" />
    <vehicle id="W_S_192" type="standard_car" route="W_S" depart="553" departLane="random" departSpeed="10" />
    <vehicle id="W_S_193" type="standard_car" route="W_S" depart="553" departLane="random" departSpeed="10" />
    <vehicle id="N_S_1_194" type="standard_car" route="N_S_1" depart="554" departLane="random" departSpeed="10" />
    <vehicle id="W_S_195" type="standard_car" route="W_S" depart="555" departLane="random" departSpeed="10" />
    <vehicle id="S_E_196" type="standard_car" route="S_E" depart="557" departLane="random" departSpeed="10" />
    <vehicle id="W_E_197" type="standard_car" route="W_E" depart="559" departLane="random" departSpeed="10" />
    <vehicle id="W_E_198" type="standard_car" route="W_E" depart="562" departLane="random" departSpeed="10" />
    <vehicle id="S_E_199" type="standard_car" route="S_E" depart="563" departLane="random" departSpeed="10" />
    <vehicle id="E_W_200" type="standard_car" route="E_W" depart="566" departLane="random" departSpeed="10" />
    <vehicle id="E_W_201" type="standard_car" route="E_W" depart="568" departLane="random" departSpeed="10" />
    <vehicle id="S_N_2_202" type="standard_car" route="S_N_2" depart="569" departLane="random" departSpeed="10" />
    <vehicle id="S_N_2_203" type="standard_car" route="S_N_2" depart="570" departLane="random" departSpeed="10" />
    <vehicle id="N_S_1_204" type="standard_car" route="N_S_1" depart="572" departLane="random" departSpeed="10" />
    <vehicle id="S_N_2_205" type="standard_car" route="S_N_2" depart="576" departLane="random" departSpeed="10" />
    <vehicle id="N_W_206" type="standard_car" route="N_W" depart="578" departLane="random" departSpeed="10" />
    <vehicle id="W_S_207" type="standard_car" route="W_S" depart="580" departLane="random" departSpeed="10" />
    <vehicle id="N_S_1_208" type="standard_car" route="N_S_1" depart="581" departLane="random" departSpeed="10" />
    <vehicle id="N_S_2_209" type="standard_car" route="N_S_2" depart="583" departLane="random" departSpeed="10" />
    <vehicle id="N_S_2_210" type="standard_car" route="N_S_2" depart="583" departLane="random" departSpeed="10" />
    <vehicle id="W_E_211" type="standard_car" route="W_E" depart="584" departLane="random" departSpeed="10" />
    <vehicle id="E_N_212" type="standard_car" route="E_N" depart="584" departLane="random" departSpeed="10" />
    <vehicle id="S_N_1_213" type="standard_car" route="S_N_1" depart="585" departLane="random" departSpeed="10" />
    <vehicle id="N_S_1_214" type="standard_car" route="N_S_1" depart="586" departLane="random" departSpeed="10" />
    <vehicle id="S_N_2_215" type="standard_car" route="S_N_2" depart="589" departLane="random" departSpeed="10" />
    <vehicle id="E_N_216" type="standard_car" route="E_N" depart="590" departLane="random" departSpeed="10" />
    <vehicle id="W_E_217" type="standard_car" route="W_E" depart="590" departLane="random" departSpeed="10" />
    <vehicle id="E_W_218" type="standard_car" route="E_W" depart="590" departLane="random" departSpeed="10" />
    <vehicle id="S_N_2_219" type="standard_car" route="S_N_2" depart="591" departLane="random" departSpeed="10" />
    <vehicle id="S_N_1_220" type="standard_car" route="S_N_1" depart="591" departLane="random" departSpeed="10" />
    <vehicle id="S_N_2_221" type="standard_car" route="S_N_2" depart="592" departLane="random" departSpeed="10" />
    <vehicle id="W_S_222" type="standard_car" route="W_S" depart="595" departLane="random" departSpeed="10" />
    <vehicle id="N_W_223" type="standard_car" route="N_W" depart="595" departLane="random" departSpeed="10" />
    <vehicle id="N_S_2_224" type="standard_car" route="N_S_2" depart="600" departLane="random" departSpeed="10" />
    <vehicle id="S_N_2_225" type="standard_car" route="S_N_2" depart="600" departLane="random" departSpeed="10" />
    <vehicle id="N_S_2_226" type="standard_car" route="N_S_2" depart="603" departLane="random" departSpeed="10" />
    <vehicle id="W_E_227" type="standard_car" route="W_E" depart="604" departLane="random" departSpeed="10" />
    <vehicle id="N_S_2_228" type="standard_car" route="N_S_2" depart="604" departLane="random" departSpeed="10" />
    <vehicle id="S_E_229" type="standard_car" route="S_E" depart="604" departLane="random" departSpeed="10" />
    <vehicle id="W_S_230" type="standard_car" route="W_S" depart="604" departLane="random" departSpeed="10" />
    <vehicle id="W_E_231" type="standard_car" route="W_E" depart="604" departLane="random" departSpeed="10" />
    <vehicle id="S_N_1_232" type="standard_car" route="S_N_1" depart="605" departLane="random" departSpeed="10" />
    <vehicle id="N_S_1_233" type="standard_car" route="N_S_1" depart="605" departLane="random" departSpeed="10" />
    <vehicle id="N_W_234" type="standard_car" route="N_W" depart="608" departLane="random" departSpeed="10" />
    <vehicle id="W_S_235" type="standard_car" route="W_S" depart="609" departLane="random" departSpeed="10" />
    <vehicle id="W_E_236" type="standard_car" route="W_E" depart="609" departLane="random" departSpeed="10" />
    <vehicle id="S_N_2_237" type="standard_car" route="S_N_2" depart="612" departLane="random" departSpeed="10" />
    <vehicle id="S_N_1_238" type="standard_car" route="S_N_1" depart="612" departLane="random" departSpeed="10" />
    <vehicle id="N_S_2_239" type="standard_car" route="N_S_2" depart="612" departLane="random" departSpeed="10" />
    <vehicle id="S_E_240" type="standard_car" route="S_E" depart="613" departLane="random" departSpeed="10" />
    <vehicle id="N_S_2_241" type="standard_car" route="N_S_2" depart="614" departLane="random" departSpeed="10" />
    <vehicle id="S_N_2_242" type="standard_car" route="S_N_2" depart="615" departLane="random" departSpeed="10" />
    <vehicle id="N_S_1_243" type="standard_car" route="N_S_1" depart="615" departLane="random" departSpeed="10" />
    <vehicle id="S_N_2_244" type="standard_car" route="S_N_2" depart="616" departLane="random" departSpeed="10" />
    <vehicle id="N_S_1_245" type="standard_car" route="N_S_1" depart="618" departLane="random" departSpeed="10" />
    <vehicle id="S_N_2_246" type="standard_car" route="S_N_2" depart="620" departLane="random" departSpeed="10" />
    <vehicle id="N_W_247" type="standard_car" route="N_W" depart="622" departLane="random" departSpeed="10" />
    <vehicle id="S_E_248" type="standard_car" route="S_E" depart="625" departLane="random" departSpeed="10" />
    <vehicle id="S_E_249" type="standard_car" route="S_E" depart="626" departLane="random" departSpeed="10" />
    <vehicle id="N_S_1_250" type="standard_car" route="N_S_1" depart="626" departLane="random" departSpeed="10" />
    <vehicle id="W_E_251" type="standard_car" route="W_E" depart="628" departLane="random" departSpeed="10" />
    <vehicle id="S_N_1_252" type="standard_car" route="S_N_1" depart="631" departLane="random" departSpeed="10" />
    <vehicle id="N_S_1_253" type="standard_car" route="N_S_1" depart="633" departLane="random" departSpeed="10" />
    <vehicle id="N_W_254" type="standard_car" route="N_W" depart="633" departLane="random" departSpeed="10" />
    <vehicle id="W_E_255" type="standard_car" route="W_E" depart="636" departLane="random" departSpeed="10" />
    <vehicle id="W_E_256" type="standard_car" route="W_E" depart="640" departLane="random" departSpeed="10" />
    <vehicle id="N_S_2_257" type="standard_car" route="N_S_2" depart="640" departLane="random" departSpeed="10" />
    <vehicle id="W_E_258" type="standard_car" route="W_E" depart="640" departLane="random" departSpeed="10" />