<configuration>
    <input>
        <node-files value="1x2_grid.nod.xml"/>
        <edge-files value="1x2_grid.edg.xml"/>
        <connection-files value="1x2_grid.con.xml"/>
    </input>

    <output>
        <output-file value="1x2_grid.net.xml"/>
    </output>
</configuration>
