<routes>
            <vType id="emergency" accel="3.0" decel="6.0" color="1,0,0" maxSpeed="20" sigma="0.5" emergency="true" />
            <vType id="standard_car" accel="1.0" decel="4.5" length="5.0" minGap="2.5" maxSpeed="25" sigma="0.5" />
            <route id="E_W" edges="2_E2TL 2_TL2W TL2W" />
            <route id="W_E" edges="W2TL TL2E 2_TL2E" />
            <route id="N_S_1" edges="2_N2TL 2_TL2S" />
            <route id="N_S_2" edges="N2TL TL2S" />
            <route id="S_N_1" edges="S2TL TL2N" />
            <route id="S_N_2" edges="2_S2TL 2_TL2N" />
            <route id="N_W" edges="2_N2TL 2_TL2W" />
            <route id="S_E" edges="S2TL TL2E" />
            <route id="E_N" edges="2_E2TL 2_TL2N" />
            <route id="W_S" edges="W2TL TL2E 2_TL2S" />
    <vehicle id="S_N_2_0" type="standard_car" route="S_N_2" depart="35" departLane="random" departSpeed="10" />
    <vehicle id="W_E_1" type="standard_car" route="W_E" depart="42" departLane="random" departSpeed="10" />
    <vehicle id="S_E_2" type="standard_car" route="S_E" depart="46" departLane="random" departSpeed="10" />
    <vehicle id="E_W_3" type="standard_car" route="E_W" depart="67" departLane="random" departSpeed="10" />
    <vehicle id="E_N_4" type="standard_car" route="E_N" depart="82" departLane="random" departSpeed="10" />
    <vehicle id="S_N_1_5" type="standard_car" route="S_N_1" depart="94" departLane="random" departSpeed="10" />
    <vehicle id="N_W_6" type="standard_car" route="N_W" depart="110" departLane="random" departSpeed="10" />
    <vehicle id="N_S_1_7" type="standard_car" route="N_S_1" depart="112" departLane="random" departSpeed="10" />
    <vehicle id="W_S_8" type="standard_car" route="W_S" depart="123" departLane="random" departSpeed="10" />
    <vehicle id="N_S_2_9" type="standard_car" route="N_S_2" depart="123" departLane="random" departSpeed="10" />
    <vehicle id="W_S_10" type="standard_car" route="W_S" depart="125" departLane="random" departSpeed="10" />
    <vehicle id="N_W_11" type="standard_car" route="N_W" depart="129" departLane="random" departSpeed="10" />
    <vehicle id="S_N_1_12" type="standard_car" route="S_N_1" depart="131" departLane="random" departSpeed="10" />
    <vehicle id="N_S_1_13" type="standard_car" route="N_S_1" depart="142" departLane="random" departSpeed="10" />
    <vehicle id="S_N_1_14" type="standard_car" route="S_N_1" depart="160" departLane="random" departSpeed="10" />
    <vehicle id="N_S_2_15" type="standard_car" route="N_S_2" depart="172" departLane="random" departSpeed="10" />
    <vehicle id="N_S_1_16" type="standard_car" route="N_S_1" depart="174" departLane="random" departSpeed="10" />
    <vehicle id="W_E_17" type="standard_car" route="W_E" depart="174" departLane="random" departSpeed="10" />
    <vehicle id="E_W_18" type="standard_car" route="E_W" depart="181" departLane="random" departSpeed="10" />
    <vehicle id="N_S_2_19" type="standard_car" route="N_S_2" depart="192" departLane="random" departSpeed="10" />
    <vehicle id="E_N_20" type="standard_car" route="E_N" depart="193" departLane="random" departSpeed="10" />
    <vehicle id="N_W_21" type="standard_car" route="N_W" depart="195" departLane="random" departSpeed="10" />
    <vehicle id="S_E_22" type="standard_car" route="S_E" depart="198" departLane="random" departSpeed="10" />
    <vehicle id="N_S_1_23" type="standard_car" route="N_S_1" depart="199" departLane="random" departSpeed="10" />
    <vehicle id="N_S_2_24" type="standard_car" route="N_S_2" depart="208" departLane="random" departSpeed="10" />
    <vehicle id="E_W_25" type="standard_car" route="E_W" depart="208" departLane="random" departSpeed="10" />
    <vehicle id="S_N_2_26" type="standard_car" route="S_N_2" depart="210" departLane="random" departSpeed="10" />
    <vehicle id="W_E_27" type="standard_car" route="W_E" depart="216" departLane="random" departSpeed="10" />
    <vehicle id="S_N_2_28" type="standard_car" route="S_N_2" depart="221" departLane="random" departSpeed="10" />
    <vehicle id="S_N_1_29" type="standard_car" route="S_N_1" depart="226" departLane="random" departSpeed="10" />
    <vehicle id="W_E_30" type="standard_car" route="W_E" depart="227" departLane="random" departSpeed="10" />
    <vehicle id="S_N_2_31" type="standard_car" route="S_N_2" depart="230" departLane="random" departSpeed="10" />
    <vehicle id="S_N_1_32" type="standard_car" route="S_N_1" depart="231" departLane="random" departSpeed="10" />
    <vehicle id="W_S_33" type="standard_car" route="W_S" depart="232" departLane="random" departSpeed="10" />
    <vehicle id="S_N_1_34" type="standard_car" route="S_N_1" depart="235" departLane="random" departSpeed="10" />
    <vehicle id="S_E_35" type="standard_car" route="S_E" depart="236" departLane="random" departSpeed="10" />
    <vehicle id="E_W_36" type="standard_car" route="E_W" depart="243" departLane="random" departSpeed="10" />
    <vehicle id="E_W_37" type="standard_car" route="E_W" depart="246" departLane="random" departSpeed="10" />
    <vehicle id="N_W_38" type="standard_car" route="N_W" depart="248" departLane="random" departSpeed="10" />
    <vehicle id="W_E_39" type="standard_car" route="W_E" depart="250" departLane="random" departSpeed="10" />
    <vehicle id="S_N_1_40" type="standard_car" route="S_N_1" depart="251" departLane="random" departSpeed="10" />
    <vehicle id="N_S_2_41" type="standard_car" route="N_S_2" depart="252" departLane="random" departSpeed="10" />
    <vehicle id="S_N_2_42" type="standard_car" route="S_N_2" depart="254" departLane="random" departSpeed="10" />
    <vehicle id="N_S_1_43" type="standard_car" route="N_S_1" depart="257" departLane="random" departSpeed="10" />
    <vehicle id="E_N_44" type="standard_car" route="E_N" depart="257" departLane="random" departSpeed="10" />
    <vehicle id="E_N_45" type="standard_car" route="E_N" depart="260" departLane="random" departSpeed="10" />
    <vehicle id="W_S_46" type="standard_car" route="W_S" depart="262" departLane="random" departSpeed="10" />
    <vehicle id="N_W_47" type="standard_car" route="N_W" depart="264" departLane="random" departSpeed="10" />
    <vehicle id="W_S_48" type="standard_car" route="W_S" depart="282" departLane="random" departSpeed="10" />
    <vehicle id="N_S_2_49" type="standard_car" route="N_S_2" depart="282" departLane="random" departSpeed="10" />
    <vehicle id="S_N_1_50" type="standard_car" route="S_N_1" depart="284" departLane="random" departSpeed="10" />
    <vehicle id="W_E_51" type="standard_car" route="W_E" depart="284" departLane="random" departSpeed="10" />
    <vehicle id="N_S_2_52" type="standard_car" route="N_S_2" depart="285" departLane="random" departSpeed="10" />
    <vehicle id="S_N_1_53" type="standard_car" route="S_N_1" depart="285" departLane="random" departSpeed="10" />
    <vehicle id="N_W_54" type="standard_car" route="N_W" depart="288" departLane="random" departSpeed="10" />
    <vehicle id="E_W_55" type="standard_car" route="E_W" depart="290" departLane="random" departSpeed="10" />
    <vehicle id="E_N_56" type="standard_car" route="E_N" depart="294" departLane="random" departSpeed="10" />
    <vehicle id="N_S_2_57" type="standard_car" route="N_S_2" depart="301" departLane="random" departSpeed="10" />
    <vehicle id="W_E_58" type="standard_car" route="W_E" depart="305" departLane="random" departSpeed="10" />
    <vehicle id="S_N_1_59" type="standard_car" route="S_N_1" depart="309" departLane="random" departSpeed="10" />
    <vehicle id="N_S_2_60" type="standard_car" route="N_S_2" depart="310" departLane="random" departSpeed="10" />
    <vehicle id="N_S_1_61" type="standard_car" route="N_S_1" depart="314" departLane="random" departSpeed="10" />
    <vehicle id="S_E_62" type="standard_car" route="S_E" depart="315" departLane="random" departSpeed="10" />
    <vehicle id="N_S_2_63" type="standard_car" route="N_S_2" depart="315" departLane="random" departSpeed="10" />
    <vehicle id="E_W_64" type="standard_car" route="E_W" depart="316" departLane="random" departSpeed="10" />
    <vehicle id="E_W_65" type="standard_car" route="E_W" depart="318" departLane="random" departSpeed="10" />
    <vehicle id="W_S_66" type="standard_car" route="W_S" depart="324" departLane="random" departSpeed="10" />
    <vehicle id="E_W_67" type="standard_car" route="E_W" depart="329" departLane="random" departSpeed="10" />
    <vehicle id="S_N_1_68" type="standard_car" route="S_N_1" depart="329" departLane="random" departSpeed="10" />
    <vehicle id="S_N_1_69" type="standard_car" route="S_N_1" depart="330" departLane="random" departSpeed="10" />
    <vehicle id="S_N_2_70" type="standard_car" route="S_N_2" depart="331" departLane="random" departSpeed="10" />
    <vehicle id="N_S_2_71" type="standard_car" route="N_S_2" depart="336" departLane="random" departSpeed="10" />
    <vehicle id="S_N_1_72" type="standard_car" route="S_N_1" depart="341" departLane="random" departSpeed="10" />
    <vehicle id="S_E_73" type="standard_car" route="S_E" depart="342" departLane="random" departSpeed="10" />
    <vehicle id="N_W_74" type="standard_car" route="N_W" depart="343" departLane="random" departSpeed="10" />
    <vehicle id="N_S_1_75" type="standard_car" route="N_S_1" depart="345" departLane="random" departSpeed="10" />
    <vehicle id="W_E_76" type="standard_car" route="W_E" depart="348" departLane="random" departSpeed="10" />
    <vehicle id="N_S_1_77" type="standard_car" route="N_S_1" depart="350" departLane="random" departSpeed="10" />
    <vehicle id="W_E_78" type="standard_car" route="W_E" depart="355" departLane="random" departSpeed="10" />
    <vehicle id="E_W_79" type="standard_car" route="E_W" depart="357" departLane="random" departSpeed="10" />
    <vehicle id="W_E_80" type="standard_car" route="W_E" depart="360" departLane="random" departSpeed="10" />
    <vehicle id="S_N_2_81" type="standard_car" route="S_N_2" depart="362" departLane="random" departSpeed="10" />
    <vehicle id="W_E_82" type="standard_car" route="W_E" depart="364" departLane="random" departSpeed="10" />
    <vehicle id="E_W_83" type="standard_car" route="E_W" depart="368" departLane="random" departSpeed="10" />
    <vehicle id="N_S_2_84" type="standard_car" route="N_S_2" depart="369" departLane="random" departSpeed="10" />
    <vehicle id="W_E_85" type="standard_car" route="W_E" depart="375" departLane="random" departSpeed="10" />
    <vehicle id="N_S_1_86" type="standard_car" route="N_S_1" depart="375" departLane="random" departSpeed="10" />
    <vehicle id="S_N_2_87" type="standard_car" route="S_N_2" depart="375" departLane="random" departSpeed="10" />
    <vehicle id="S_N_1_88" type="standard_car" route="S_N_1" depart="376" departLane="random" departSpeed="10" />
    <vehicle id="W_S_89" type="standard_car" route="W_S" depart="377" departLane="random" departSpeed="10" />
    <vehicle id="N_W_90" type="standard_car" route="N_W" depart="377" departLane="random" departSpeed="10" />
    <vehicle id="E_N_91" type="standard_car" route="E_N" depart="382" departLane="random" departSpeed="10" />
    <vehicle id="W_S_92" type="standard_car" route="W_S" depart="383" departLane="random" departSpeed="10" />
    <vehicle id="N_S_1_93" type="standard_car" route="N_S_1" depart="384" departLane="random" departSpeed="10" />
    <vehicle id="N_S_2_94" type="standard_car" route="N_S_2" depart="384" departLane="random" departSpeed="10" />
    <vehicle id="W_S_95" type="standard_car" route="W_S" depart="385" departLane="random" departSpeed="10" />
    <vehicle id="N_S_2_96" type="standard_car" route="N_S_2" depart="388" departLane="random" departSpeed="10" />
    <vehicle id="S_E_97" type="standard_car" route="S_E" depart="391" departLane="random" departSpeed="10" />
    <vehicle id="E_N_98" type="standard_car" route="E_N" depart="394" departLane="random" departSpeed="10" />
    <vehicle id="N_S_2_99" type="standard_car" route="N_S_2" depart="402" departLane="random" departSpeed="10" />
    <vehicle id="N_S_2_100" type="standard_car" route="N_S_2" depart="405" departLane="random" departSpeed="10" />
    <vehicle id="S_N_2_101" type="standard_car" route="S_N_2" depart="406" departLane="random" departSpeed="10" />
    <vehicle id="S_N_1_102" type="standard_car" route="S_N_1" depart="412" departLane="random" departSpeed="10" />
    <vehicle id="W_E_103" type="standard_car" route="W_E" depart="412" departLane="random" departSpeed="10" />
    <vehicle id="N_S_1_104" type="standard_car" route="N_S_1" depart="412" departLane="random" departSpeed="10" />
    <vehicle id="N_S_1_105" type="standard_car" route="N_S_1" depart="422" departLane="random" departSpeed="10" />
    <vehicle id="S_E_106" type="standard_car" route="S_E" depart="422" departLane="random" departSpeed="10" />
    <vehicle id="N_S_1_107" type="standard_car" route="N_S_1" depart="423" departLane="random" departSpeed="10" />
    <vehicle id="N_W_108" type="standard_car" route="N_W" depart="425" departLane="random" departSpeed="10" />
    <vehicle id="S_N_2_109" type="standard_car" route="S_N_2" depart="430" departLane="random" departSpeed="10" />
    <vehicle id="N_S_1_110" type="standard_car" route="N_S_1" depart="435" departLane="random" departSpeed="10" />
    <vehicle id="E_W_111" type="standard_car" route="E_W" depart="436" departLane="random" departSpeed="10" />
    <vehicle id="S_N_2_112" type="standard_car" route="S_N_2" depart="440" departLane="random" departSpeed="10" />
    <vehicle id="S_N_2_113" type="standard_car" route="S_N_2" depart="440" departLane="random" departSpeed="10" />
    <vehicle id="E_W_114" type="standard_car" route="E_W" depart="441" departLane="random" departSpeed="10" />
    <vehicle id="W_E_115" type="standard_car" route="W_E" depart="442" departLane="random" departSpeed="10" />
    <vehicle id="W_E_116" type="standard_car" route="W_E" depart="443" departLane="random" departSpeed="10" />
    <vehicle id="S_N_2_117" type="standard_car" route="S_N_2" depart="444" departLane="random" departSpeed="10" />
    <vehicle id="N_S_2_118" type="standard_car" route="N_S_2" depart="445" departLane="random" departSpeed="10" />
    <vehicle id="W_E_119" type="standard_car" route="W_E" depart="447" departLane="random" departSpeed="10" />
    <vehicle id="N_S_2_120" type="standard_car" route="N_S_2" depart="448" departLane="random" departSpeed="10" />
    <vehicle id="W_E_121" type="standard_car" route="W_E" depart="448" departLane="random" departSpeed="10" />
    <vehicle id="E_N_122" type="standard_car" route="E_N" depart="449" departLane="random" departSpeed="10" />
    <vehicle id="N_S_2_123" type="standard_car" route="N_S_2" depart="449" departLane="random" departSpeed="10" />
    <vehicle id="W_E_124" type="standard_car" route="W_E" depart="452" departLane="random" departSpeed="10" />
    <vehicle id="W_S_125" type="standard_car" route="W_S" depart="458" departLane="random" departSpeed="10" />
    <vehicle id="W_E_126" type="standard_car" route="W_E" depart="458" departLane="random" departSpeed="10" />
    <vehicle id="S_N_2_127" type="standard_car" route="S_N_2" depart="458" departLane="random" departSpeed="10" />
    <vehicle id="S_N_1_128" type="standard_car" route="S_N_1" depart="460" departLane="random" departSpeed="10" />
    <vehicle id="N_S_1_129" type="standard_car" route="N_S_1" depart="461" departLane="random" departSpeed="10" />
    <vehicle id="S_N_2_130" type="standard_car" route="S_N_2" depart="463" departLane="random" departSpeed="10" />
    <vehicle id="E_W_131" type="standard_car" route="E_W" depart="463" departLane="random" departSpeed="10" />
    <vehicle id="E_N_132" type="standard_car" route="E_N" depart="467" departLane="random" departSpeed="10" />
    <vehicle id="W_E_133" type="standard_car" route="W_E" depart="468" departLane="random" departSpeed="10" />
    <vehicle id="E_W_134" type="standard_car" route="E_W" depart="469" departLane="random" departSpeed="10" />
    <vehicle id="W_S_135" type="standard_car" route="W_S" depart="471" departLane="random" departSpeed="10" />
    <vehicle id="E_N_136" type="standard_car" route="E_N" depart="471" departLane="random" departSpeed="10" />
    <vehicle id="S_N_2_137" type="standard_car" route="S_N_2" depart="473" departLane="random" departSpeed="10" />
    <vehicle id="N_S_2_138" type="standard_car" route="N_S_2" depart="475" departLane="random" departSpeed="10" />
    <vehicle id="N_S_2_139" type="standard_car" route="N_S_2" depart="478" departLane="random" departSpeed="10" />
    <vehicle id="S_N_1_140" type="standard_car" route="S_N_1" depart="478" departLane="random" departSpeed="10" />
    <vehicle id="S_N_1_141" type="standard_car" route="S_N_1" depart="479" departLane="random" departSpeed="10" />
    <vehicle id="W_E_142" type="standard_car" route="W_E" depart="480" departLane="random" departSpeed="10" />
    <vehicle id="N_S_2_143" type="standard_car" route="N_S_2" depart="481" departLane="random" departSpeed="10" />
    <vehicle id="N_S_1_144" type="standard_car" route="N_S_1" depart="482" departLane="random" departSpeed="10" />
    <vehicle id="S_N_2_145" type="standard_car" route="S_N_2" depart="482" departLane="random" departSpeed="10" />
    <vehicle id="E_N_146" type="standard_car" route="E_N" depart="485" departLane="random" departSpeed="10" />
    <vehicle id="S_N_1_147" type="standard_car" route="S_N_1" depart="488" departLane="random" departSpeed="10" />
    <vehicle id="E_W_148" type="standard_car" route="E_W" depart="489" departLane="random" departSpeed="10" />
    <vehicle id="S_E_149" type="standard_car" route="S_E" depart="494" departLane="random" departSpeed="10" />
    <vehicle id="S_N_1_150" type="standard_car" route="S_N_1" depart="498" departLane="random" departSpeed="10" />
    <vehicle id="N_S_2_151" type="standard_car" route="N_S_2" depart="500" departLane="random" departSpeed="10" />
    <vehicle id="N_S_2_152" type="standard_car" route="N_S_2" depart="504" departLane="random" departSpeed="10" />
    <vehicle id="E_W_153" type="standard_car" route="E_W" depart="504" departLane="random" departSpeed="10" />
    <vehicle id="W_S_154" type="standard_car" route="W_S" depart="505" departLane="random" departSpeed="10" />
    <vehicle id="W_S_155" type="standard_car" route="W_S" depart="508" departLane="random" departSpeed="10" />
    <vehicle id="W_E_156" type="standard_car" route="W_E" depart="509" departLane="random" departSpeed="10" />
    <vehicle id="E_W_157" type="standard_car" route="E_W" depart="513" departLane="random" departSpeed="10" />
    <vehicle id="E_N_158" type="standard_car" route="E_N" depart="514" departLane="random" departSpeed="10" />
    <vehicle id="N_S_2_159" type="standard_car" route="N_S_2" depart="518" departLane="random" departSpeed="10" />
    <vehicle id="W_S_160" type="standard_car" route="W_S" depart="521" departLane="random" departSpeed="10" />
    <vehicle id="N_S_1_161" type="standard_car" route="N_S_1" depart="522" departLane="random" departSpeed="10" />
    <vehicle id="W_E_162" type="standard_car" route="W_E" depart="523" departLane="random" departSpeed="10" />
    <vehicle id="W_E_163" type="standard_car" route="W_E" depart="523" departLane="random" departSpeed="10" />
    <vehicle id="E_N_164" type="standard_car" route="E_N" depart="524" departLane="random" departSpeed="10" />
    <vehicle id="S_N_2_165" type="standard_car" route="S_N_2" depart="531" departLane="random" departSpeed="10" />
    <vehicle id="S_E_166" type="standard_car" route="S_E" depart="531" departLane="random" departSpeed="10" />
    <vehicle id="E_W_167" type="standard_car" route="E_W" depart="532" departLane="random" departSpeed="10" />
    <vehicle id="E_W_168" type="standard_car" route="E_W" depart="532" departLane="random" departSpeed="10" />
    <vehicle id="S_N_2_169" type="standard_car" route="S_N_2" depart="534" departLane="random" departSpeed="10" />
    <vehicle id="N_S_2_170" type="standard_car" route="N_S_2" depart="538" departLane="random" departSpeed="10" />
    <vehicle id="W_S_171" type="standard_car" route="W_S" depart="539" departLane="random" departSpeed="10" />
    <vehicle id="N_S_1_172" type="standard_car" route="N_S_1" depart="543" departLane="random" departSpeed="10" />
    <vehicle id="S_N_2_173" type="standard_car" route="S_N_2" depart="551" departLane="random" departSpeed="10" />
    <vehicle id="N_S_2_174" type="standard_car" route="N_S_2" depart="552" departLane="random" departSpeed="10" />
    <vehicle id="N_W_175" type="standard_car" route="N_W" depart="556" departLane="random" departSpeed="10" />
    <vehicle id="E_W_176" type="standard_car" route="E_W" depart="561" departLane="random" departSpeed="10" />
    <vehicle id="N_W_177" type="standard_car" route="N_W" depart="562" departLane="random" departSpeed="10" />
    <vehicle id="S_N_1_178" type="standard_car" route="S_N_1" depart="565" departLane="random" departSpeed="10" />
    <vehicle id="S_N_1_179" type="standard_car" route="S_N_1" depart="566" departLane="random" departSpeed="10" />
    <vehicle id="S_N_2_180" type="standard_car" route="S_N_2" depart="572" departLane="random" departSpeed="10" />
    <vehicle id="S_N_2_181" type="standard_car" route="S_N_2" depart="573" departLane="random" departSpeed="10" />
    <vehicle id="W_E_182" type="standard_car" route="W_E" depart="574" departLane="random" departSpeed="10" />
    <vehicle id="E_N_183" type="standard_car" route="E_N" depart="575" departLane="random" departSpeed="10" />
    <vehicle id="W_E_184" type="standard_car" route="W_E" depart="576" departLane="random" departSpeed="10" />
    <vehicle id="W_E_185" type="standard_car" route="W_E" depart="576" departLane="random" departSpeed="10" />
    <vehicle id="E_N_186" type="standard_car" route="E_N" depart="577" departLane="random" departSpeed="10" />
    <vehicle id="N_S_1_187" type="standard_car" route="N_S_1" depart="577" departLane="random" departSpeed="10" />
    <vehicle id="E_W_188" type="standard_car" route="E_W" depart="578" departLane="random" departSpeed="10" />
    <vehicle id="S_N_2_189" type="standard_car" route="S_N_2" depart="580" departLane="random" departSpeed="10" />
    <vehicle id="N_W_190" type="standard_car" route="N_W" depart="580" departLane="random" departSpeed="10" />
    <vehicle id="N_S_1_191" type="standard_car" route="N_S_1" depart="583" departLane="random" departSpeed="10" />
    <vehicle id="S_N_1_192" type="standard_car" route="S_N_1" depart="583" departLane="random" departSpeed="10" />
    <vehicle id="E_W_193" type="standard_car" route="E_W" depart="584" departLane="random" departSpeed="10" />
    <vehicle id="E_W_194" type="standard_car" route="E_W" depart="585" departLane="random" departSpeed="10" />
    <vehicle id="S_N_1_195" type="standard_car" route="S_N_1" depart="585" departLane="random" departSpeed="10" />
    <vehicle id="E_W_196" type="standard_car" route="E_W" depart="585" departLane="random" departSpeed="10" />
    <vehicle id="N_W_197" type="standard_car" route="N_W" depart="585" departLane="random" departSpeed="10" />
    <vehicle id="W_S_198" type="standard_car" route="W_S" depart="588" departLane="random" departSpeed="10" />
    <vehicle id="N_S_1_199" type="standard_car" route="N_S_1" depart="588" departLane="random" departSpeed="10" />
    <vehicle id="N_S_1_200" type="standard_car" route="N_S_1" depart="590" departLane="random" departSpeed="10" />
    <vehicle id="S_N_2_201" type="standard_car" route="S_N_2" depart="590" departLane="random" departSpeed="10" />
    <vehicle id="N_W_202" type="standard_car" route="N_W" depart="591" departLane="random" departSpeed="10" />
    <vehicle id="N_S_1_203" type="standard_car" route="N_S_1" depart="591" departLane="random" departSpeed="10" />
    <vehicle id="S_E_204" type="standard_car" route="S_E" depart="592" departLane="random" departSpeed="10" />
    <vehicle id="W_E_205" type="standard_car" route="W_E" depart="592" departLane="random" departSpeed="10" />
    <vehicle id="N_S_2_206" type="standard_car" route="N_S_2" depart="594" departLane="random" departSpeed="10" />
    <vehicle id="S_E_207" type="standard_car" route="S_E" depart="595" departLane="random" departSpeed="10" />
    <vehicle id="W_E_208" type="standard_car" route="W_E" depart="596" departLane="random" departSpeed="10" />
    <vehicle id="W_E_209" type="standard_car" route="W_E" depart="596" departLane="random" departSpeed="10" />
    <vehicle id="N_S_1_210" type="standard_car" route="N_S_1" depart="598" departLane="random" departSpeed="10" />
    <vehicle id="N_W_211" type="standard_car" route="N_W" depart="599" departLane="random" departSpeed="10" />
    <vehicle id="E_W_212" type="standard_car" route="E_W" depart="599" departLane="random" departSpeed="10" />
    <vehicle id="N_S_2_213" type="standard_car" route="N_S_2" depart="600" departLane="random" departSpeed="10" />
    <vehicle id="S_E_214" type="standard_car" route="S_E" depart="602" departLane="random" departSpeed="10" />
    <vehicle id="N_S_1_215" type="standard_car" route="N_S_1" depart="604" departLane="random" departSpeed="10" />
    <vehicle id="N_S_1_216" type="standard_car" route="N_S_1" depart="605" departLane="random" departSpeed="10" />
    <vehicle id="W_E_217" type="standard_car" route="W_E" depart="606" departLane="random" departSpeed="10" />
    <vehicle id="S_N_1_218" type="standard_car" route="S_N_1" depart="606" departLane="random" departSpeed="10" />
    <vehicle id="E_N_219" type="standard_car" route="E_N" depart="606" departLane="random" departSpeed="10" />
    <vehicle id="S_N_2_220" type="standard_car" route="S_N_2" depart="607" departLane="random" departSpeed="10" />
    <vehicle id="W_S_221" type="standard_car" route="W_S" depart="607" departLane="random" departSpeed="10" />
    <vehicle id="N_S_1_222" type="standard_car" route="N_S_1" depart="609" departLane="random" departSpeed="10" />
    <vehicle id="N_S_1_223" type="standard_car" route="N_S_1" depart="611" departLane="random" departSpeed="10" />
    <vehicle id="W_S_224" type="standard_car" route="W_S" depart="613" departLane="random" departSpeed="10" />
    <vehicle id="W_S_225" type="standard_car" route="W_S" depart="614" departLane="random" departSpeed="10" />
    <vehicle id="N_S_1_226" type="standard_car" route="N_S_1" depart="614" departLane="random" departSpeed="10" />
    <vehicle id="N_S_2_227" type="standard_car" route="N_S_2" depart="616" departLane="random" departSpeed="10" />
    <vehicle id="N_S_2_228" type="standard_car" route="N_S_2" depart="616" departLane="random" departSpeed="10" />
    <vehicle id="E_W_229" type="standard_car" route="E_W" depart="616" departLane="random" departSpeed="10" />
    <vehicle id="S_E_230" type="standard_car" route="S_E" depart="619" departLane="random" departSpeed="10" />
    <vehicle id="N_W_231" type="standard_car" route="N_W" depart="621" departLane="random" departSpeed="10" />
    <vehicle id="S_N_1_232" type="standard_car" route="S_N_1" depart="621" departLane="random" departSpeed="10" />
    <vehicle id="S_N_1_233" type="standard_car" route="S_N_1" depart="621" departLane="random" departSpeed="10" />
    <vehicle id="E_N_234" type="standard_car" route="E_N" depart="622" departLane="random" departSpeed="10" />
    <vehicle id="E_W_235" type="standard_car" route="E_W" depart="623" departLane="random" departSpeed="10" />
    <vehicle id="S_E_236" type="standard_car" route="S_E" depart="626" departLane="random" departSpeed="10" />
    <vehicle id="S_N_1_237" type="standard_car" route="S_N_1" depart="631" departLane="random" departSpeed="10" />
    <vehicle id="N_S_1_238" type="standard_car" route="N_S_1" depart="631" departLane="random" departSpeed="10" />
    <vehicle id="E_W_239" type="standard_car" route="E_W" depart="631" departLane="random" departSpeed="10" />
    <vehicle id="S_N_1_240" type="standard_car" route="S_N_1" depart="631" departLane="random" departSpeed="10" />
    <vehicle id="N_S_2_241" type="standard_car" route="N_S_2" depart="632" departLane="random" departSpeed="10" />
    <vehicle id="W_S_242" type="standard_car" route="W_S" depart="632" departLane="random" departSpeed="10" />
    <vehicle id="N_W_243" type="standard_car" route="N_W" depart="633" departLane="random" departSpeed="10" />
    <vehicle id="W_S_244" type="standard_car" route="W_S" depart="634" departLane="random" departSpeed="10" />
    <vehicle id="W_E_245" type="standard_car" route="W_E" depart="636" departLane="random" departSpeed="10" />
    <vehicle id="S_E_246" type="standard_car" route="S_E" depart="636" departLane="random" departSpeed="10" />
    <vehicle id="N_S_1_247" type="standard_car" route="N_S_1" depart="636" departLane="random" departSpeed="10" />
    <vehicle id="W_E_248" type="standard_car" route="W_E" depart="636" departLane="random" departSpeed="10" />
    <vehicle id="S_N_1_249" type="standard_car" route="S_N_1" depart="636" departLane="random" departSpeed="10" />
    <vehicle id="S_N_1_250" type="standard_car" route="S_N_1" depart="637" departLane="random" departSpeed="10" />
    <vehicle id="S_N_2_251" type="standard_car" route="S_N_2" depart="638" departLane="random" departSpeed="10" />
    <vehicle id="S_E_252" type="standard_car" route="S_E" depart="639" departLane="random" departSpeed="10" />
    <vehicle id="W_E_253" type="standard_car" route="W_E" depart="639" departLane="random" departSpeed="10" />
    <vehicle id="W_E_254" type="standard_car" route="W_E" depart="640" departLane="random" departSpeed="10" />
    <vehicle id="S_N_1_255" type="standard_car" route="S_N_1" depart="640" departLane="random" departSpeed="10" />
    <vehicle id="S_E_256" type="standard_car" route="S_E" depart="640" departLane="random" departSpeed="10" />
    <vehicle id="W_S_257" type="standard_car" route="W_S" depart="644" departLane="random" departSpeed="10" />
    <vehicle id="S_E_258" type="standard_car" route="S_E" depart="644" departLane="random" departSpeed="10" />