<routes>
            <vType id="emergency" accel="3.0" decel="6.0" color="1,0,0" maxSpeed="20" sigma="0.5" emergency="true" />
            <vType id="standard_car" accel="1.0" decel="4.5" length="5.0" minGap="2.5" maxSpeed="25" sigma="0.5" />
            <route id="E_W" edges="2_E2TL 2_TL2W TL2W" />
            <route id="W_E" edges="W2TL TL2E 2_TL2E" />
            <route id="N_S" edges="2_N2TL 2_TL2S" />
            <route id="S_N" edges="S2TL TL2N" />
            <route id="N_W" edges="2_N2TL 2_TL2W TL2W" />
            <route id="S_E" edges="S2TL TL2E 2_TL2E" />
            <route id="E_N" edges="2_E2TL 2_TL2N" />
            <route id="W_S" edges="W2TL TL2E 2_TL2S" />
    <vehicle id="E_N_0" type="standard_car" route="E_N" depart="35" departLane="random" departSpeed="10" />
    <vehicle id="S_N_1" type="standard_car" route="S_N" depart="42" departLane="random" departSpeed="10" />
    <vehicle id="S_E_2" type="standard_car" route="S_E" depart="46" departLane="random" departSpeed="10" />
    <vehicle id="E_W_3" type="standard_car" route="E_W" depart="67" departLane="random" departSpeed="10" />
    <vehicle id="N_W_4" type="standard_car" route="N_W" depart="82" departLane="random" departSpeed="10" />
    <vehicle id="N_S_5" type="standard_car" route="N_S" depart="94" departLane="random" departSpeed="10" />
    <vehicle id="W_E_6" type="standard_car" route="W_E" depart="110" departLane="random" departSpeed="10" />
    <vehicle id="W_S_7" type="standard_car" route="W_S" depart="112" departLane="random" departSpeed="10" />
    <vehicle id="W_S_8" type="standard_car" route="W_S" depart="123" departLane="random" departSpeed="10" />
    <vehicle id="N_W_9" type="standard_car" route="N_W" depart="123" departLane="random" departSpeed="10" />
    <vehicle id="E_W_10" type="standard_car" route="E_W" depart="125" departLane="random" departSpeed="10" />
    <vehicle id="N_S_11" type="standard_car" route="N_S" depart="129" departLane="random" departSpeed="10" />
    <vehicle id="E_W_12" type="standard_car" route="E_W" depart="131" departLane="random" departSpeed="10" />
    <vehicle id="S_N_13" type="standard_car" route="S_N" depart="142" departLane="random" departSpeed="10" />
    <vehicle id="S_N_14" type="standard_car" route="S_N" depart="160" departLane="random" departSpeed="10" />
    <vehicle id="E_W_15" type="standard_car" route="E_W" depart="172" departLane="random" departSpeed="10" />
    <vehicle id="S_N_16" type="standard_car" route="S_N" depart="174" departLane="random" departSpeed="10" />
    <vehicle id="N_S_17" type="standard_car" route="N_S" depart="174" departLane="random" departSpeed="10" />
    <vehicle id="N_S_18" type="standard_car" route="N_S" depart="181" departLane="random" departSpeed="10" />
    <vehicle id="E_W_19" type="standard_car" route="E_W" depart="192" departLane="random" departSpeed="10" />
    <vehicle id="N_S_20" type="standard_car" route="N_S" depart="193" departLane="random" departSpeed="10" />
    <vehicle id="S_E_21" type="standard_car" route="S_E" depart="195" departLane="random" departSpeed="10" />
    <vehicle id="S_N_22" type="standard_car" route="S_N" depart="198" departLane="random" departSpeed="10" />
    <vehicle id="S_N_23" type="standard_car" route="S_N" depart="199" departLane="random" departSpeed="10" />
    <vehicle id="E_N_24" type="standard_car" route="E_N" depart="208" departLane="random" departSpeed="10" />
    <vehicle id="S_N_25" type="standard_car" route="S_N" depart="208" departLane="random" departSpeed="10" />
    <vehicle id="W_E_26" type="standard_car" route="W_E" depart="210" departLane="random" departSpeed="10" />
    <vehicle id="E_N_27" type="standard_car" route="E_N" depart="216" departLane="random" departSpeed="10" />
    <vehicle id="S_N_28" type="standard_car" route="S_N" depart="221" departLane="random" departSpeed="10" />
    <vehicle id="S_N_29" type="standard_car" route="S_N" depart="226" departLane="random" departSpeed="10" />
    <vehicle id="W_E_30" type="standard_car" route="W_E" depart="227" departLane="random" departSpeed="10" />
    <vehicle id="E_W_31" type="standard_car" route="E_W" depart="230" departLane="random" departSpeed="10" />
    <vehicle id="W_S_32" type="standard_car" route="W_S" depart="231" departLane="random" departSpeed="10" />
    <vehicle id="S_N_33" type="standard_car" route="S_N" depart="232" departLane="random" departSpeed="10" />
    <vehicle id="N_S_34" type="standard_car" route="N_S" depart="235" departLane="random" departSpeed="10" />
    <vehicle id="N_S_35" type="standard_car" route="N_S" depart="236" departLane="random" departSpeed="10" />
    <vehicle id="N_S_36" type="standard_car" route="N_S" depart="243" departLane="random" departSpeed="10" />
    <vehicle id="N_S_37" type="standard_car" route="N_S" depart="246" departLane="random" departSpeed="10" />
    <vehicle id="S_E_38" type="standard_car" route="S_E" depart="248" departLane="random" departSpeed="10" />
    <vehicle id="N_S_39" type="standard_car" route="N_S" depart="250" departLane="random" departSpeed="10" />
    <vehicle id="W_S_40" type="standard_car" route="W_S" depart="251" departLane="random" departSpeed="10" />
    <vehicle id="S_E_41" type="standard_car" route="S_E" depart="252" departLane="random" departSpeed="10" />
    <vehicle id="N_S_42" type="standard_car" route="N_S" depart="254" departLane="random" departSpeed="10" />
    <vehicle id="E_N_43" type="standard_car" route="E_N" depart="257" departLane="random" departSpeed="10" />
    <vehicle id="E_N_44" type="standard_car" route="E_N" depart="257" departLane="random" departSpeed="10" />
    <vehicle id="W_S_45" type="standard_car" route="W_S" depart="260" departLane="random" departSpeed="10" />
    <vehicle id="N_W_46" type="standard_car" route="N_W" depart="262" departLane="random" departSpeed="10" />
    <vehicle id="W_S_47" type="standard_car" route="W_S" depart="264" departLane="random" departSpeed="10" />
    <vehicle id="S_N_48" type="standard_car" route="S_N" depart="282" departLane="random" departSpeed="10" />
    <vehicle id="S_N_49" type="standard_car" route="S_N" depart="282" departLane="random" departSpeed="10" />
    <vehicle id="N_S_50" type="standard_car" route="N_S" depart="284" departLane="random" departSpeed="10" />
    <vehicle id="S_E_51" type="standard_car" route="S_E" depart="284" departLane="random" departSpeed="10" />
    <vehicle id="N_S_52" type="standard_car" route="N_S" depart="285" departLane="random" departSpeed="10" />
    <vehicle id="N_S_53" type="standard_car" route="N_S" depart="285" departLane="random" departSpeed="10" />
    <vehicle id="S_E_54" type="standard_car" route="S_E" depart="288" departLane="random" departSpeed="10" />
    <vehicle id="W_S_55" type="standard_car" route="W_S" depart="290" departLane="random" departSpeed="10" />
    <vehicle id="W_E_56" type="standard_car" route="W_E" depart="294" departLane="random" departSpeed="10" />
    <vehicle id="W_S_57" type="standard_car" route="W_S" depart="301" departLane="random" departSpeed="10" />
    <vehicle id="N_S_58" type="standard_car" route="N_S" depart="305" departLane="random" departSpeed="10" />
    <vehicle id="N_S_59" type="standard_car" route="N_S" depart="309" departLane="random" departSpeed="10" />
    <vehicle id="E_W_60" type="standard_car" route="E_W" depart="310" departLane="random" departSpeed="10" />
    <vehicle id="S_N_61" type="standard_car" route="S_N" depart="314" departLane="random" departSpeed="10" />
    <vehicle id="S_N_62" type="standard_car" route="S_N" depart="315" departLane="random" departSpeed="10" />
    <vehicle id="N_S_63" type="standard_car" route="N_S" depart="315" departLane="random" departSpeed="10" />
    <vehicle id="E_N_64" type="standard_car" route="E_N" depart="316" departLane="random" departSpeed="10" />
    <vehicle id="W_S_65" type="standard_car" route="W_S" depart="318" departLane="random" departSpeed="10" />
    <vehicle id="S_N_66" type="standard_car" route="S_N" depart="324" departLane="random" departSpeed="10" />
    <vehicle id="N_S_67" type="standard_car" route="N_S" depart="329" departLane="random" departSpeed="10" />
    <vehicle id="N_S_68" type="standard_car" route="N_S" depart="329" departLane="random" departSpeed="10" />
    <vehicle id="E_W_69" type="standard_car" route="E_W" depart="330" departLane="random" departSpeed="10" />
    <vehicle id="N_W_70" type="standard_car" route="N_W" depart="331" departLane="random" departSpeed="10" />
    <vehicle id="N_S_71" type="standard_car" route="N_S" depart="336" departLane="random" departSpeed="10" />
    <vehicle id="N_S_72" type="standard_car" route="N_S" depart="341" departLane="random" departSpeed="10" />
    <vehicle id="N_W_73" type="standard_car" route="N_W" depart="342" departLane="random" departSpeed="10" />
    <vehicle id="S_E_74" type="standard_car" route="S_E" depart="343" departLane="random" departSpeed="10" />
    <vehicle id="N_W_75" type="standard_car" route="N_W" depart="345" departLane="random" departSpeed="10" />
    <vehicle id="N_S_76" type="standard_car" route="N_S" depart="348" departLane="random" departSpeed="10" />
    <vehicle id="W_E_77" type="standard_car" route="W_E" depart="350" departLane="random" departSpeed="10" />
    <vehicle id="N_S_78" type="standard_car" route="N_S" depart="355" departLane="random" departSpeed="10" />
    <vehicle id="S_N_79" type="standard_car" route="S_N" depart="357" departLane="random" departSpeed="10" />
    <vehicle id="W_E_80" type="standard_car" route="W_E" depart="360" departLane="random" departSpeed="10" />
    <vehicle id="E_W_81" type="standard_car" route="E_W" depart="362" departLane="random" departSpeed="10" />
    <vehicle id="W_E_82" type="standard_car" route="W_E" depart="364" departLane="random" departSpeed="10" />
    <vehicle id="N_S_83" type="standard_car" route="N_S" depart="368" departLane="random" departSpeed="10" />
    <vehicle id="W_S_84" type="standard_car" route="W_S" depart="369" departLane="random" departSpeed="10" />
    <vehicle id="emergency_0" type="emergency" route="E_W" depart="369" departLane="random" departSpeed="10" />
    <vehicle id="W_E_85" type="standard_car" route="W_E" depart="375" departLane="random" departSpeed="10" />
    <vehicle id="W_S_86" type="standard_car" route="W_S" depart="375" departLane="random" departSpeed="10" />
    <vehicle id="S_N_87" type="standard_car" route="S_N" depart="375" departLane="random" departSpeed="10" />
    <vehicle id="E_N_88" type="standard_car" route="E_N" depart="376" departLane="random" departSpeed="10" />
    <vehicle id="N_S_89" type="standard_car" route="N_S" depart="377" departLane="random" departSpeed="10" />
    <vehicle id="W_E_90" type="standard_car" route="W_E" depart="377" departLane="random" departSpeed="10" />
    <vehicle id="S_N_91" type="standard_car" route="S_N" depart="382" departLane="random" departSpeed="10" />
    <vehicle id="E_W_92" type="standard_car" route="E_W" depart="383" departLane="random" departSpeed="10" />
    <vehicle id="W_E_93" type="standard_car" route="W_E" depart="384" departLane="random" departSpeed="10" />
    <vehicle id="S_N_94" type="standard_car" route="S_N" depart="384" departLane="random" departSpeed="10" />
    <vehicle id="N_W_95" type="standard_car" route="N_W" depart="385" departLane="random" departSpeed="10" />
    <vehicle id="E_N_96" type="standard_car" route="E_N" depart="388" departLane="random" departSpeed="10" />
    <vehicle id="W_S_97" type="standard_car" route="W_S" depart="391" departLane="random" departSpeed="10" />
    <vehicle id="E_W_98" type="standard_car" route="E_W" depart="394" departLane="random" departSpeed="10" />
    <vehicle id="W_E_99" type="standard_car" route="W_E" depart="402" departLane="random" departSpeed="10" />
    <vehicle id="S_N_100" type="standard_car" route="S_N" depart="405" departLane="random" departSpeed="10" />
    <vehicle id="E_N_101" type="standard_car" route="E_N" depart="406" departLane="random" departSpeed="10" />
    <vehicle id="N_S_102" type="standard_car" route="N_S" depart="412" departLane="random" departSpeed="10" />
    <vehicle id="W_E_103" type="standard_car" route="W_E" depart="412" departLane="random" departSpeed="10" />
    <vehicle id="E_W_104" type="standard_car" route="E_W" depart="412" departLane="random" departSpeed="10" />
    <vehicle id="W_E_105" type="standard_car" route="W_E" depart="422" departLane="random" departSpeed="10" />
    <vehicle id="N_S_106" type="standard_car" route="N_S" depart="422" departLane="random" departSpeed="10" />
    <vehicle id="N_S_107" type="standard_car" route="N_S" depart="423" departLane="random" departSpeed="10" />
    <vehicle id="S_E_108" type="standard_car" route="S_E" depart="425" departLane="random" departSpeed="10" />
    <vehicle id="N_S_109" type="standard_car" route="N_S" depart="430" departLane="random" departSpeed="10" />
    <vehicle id="N_W_110" type="standard_car" route="N_W" depart="435" departLane="random" departSpeed="10" />
    <vehicle id="W_E_111" type="standard_car" route="W_E" depart="436" departLane="random" departSpeed="10" />
    <vehicle id="N_S_112" type="standard_car" route="N_S" depart="440" departLane="random" departSpeed="10" />
    <vehicle id="E_W_113" type="standard_car" route="E_W" depart="440" departLane="random" departSpeed="10" />
    <vehicle id="W_E_114" type="standard_car" route="W_E" depart="441" departLane="random" departSpeed="10" />
    <vehicle id="W_E_115" type="standard_car" route="W_E" depart="442" departLane="random" departSpeed="10" />
    <vehicle id="E_W_116" type="standard_car" route="E_W" depart="443" departLane="random" departSpeed="10" />
    <vehicle id="S_N_117" type="standard_car" route="S_N" depart="444" departLane="random" departSpeed="10" />
    <vehicle id="N_W_118" type="standard_car" route="N_W" depart="445" departLane="random" departSpeed="10" />
    <vehicle id="S_N_119" type="standard_car" route="S_N" depart="447" departLane="random" departSpeed="10" />
    <vehicle id="S_E_120" type="standard_car" route="S_E" depart="448" departLane="random" departSpeed="10" />
    <vehicle id="S_N_121" type="standard_car" route="S_N" depart="448" departLane="random" departSpeed="10" />
    <vehicle id="W_E_122" type="standard_car" route="W_E" depart="449" departLane="random" departSpeed="10" />
    <vehicle id="S_N_123" type="standard_car" route="S_N" depart="449" departLane="random" departSpeed="10" />
    <vehicle id="W_E_124" type="standard_car" route="W_E" depart="452" departLane="random" departSpeed="10" />
    <vehicle id="E_N_125" type="standard_car" route="E_N" depart="458" departLane="random" departSpeed="10" />
    <vehicle id="S_N_126" type="standard_car" route="S_N" depart="458" departLane="random" departSpeed="10" />
    <vehicle id="N_S_127" type="standard_car" route="N_S" depart="458" departLane="random" departSpeed="10" />
    <vehicle id="W_S_128" type="standard_car" route="W_S" depart="460" departLane="random" departSpeed="10" />
    <vehicle id="S_N_129" type="standard_car" route="S_N" depart="461" departLane="random" departSpeed="10" />
    <vehicle id="S_N_130" type="standard_car" route="S_N" depart="463" departLane="random" departSpeed="10" />
    <vehicle id="S_N_131" type="standard_car" route="S_N" depart="463" departLane="random" departSpeed="10" />
    <vehicle id="N_S_132" type="standard_car" route="N_S" depart="467" departLane="random" departSpeed="10" />
    <vehicle id="S_E_133" type="standard_car" route="S_E" depart="468" departLane="random" departSpeed="10" />
    <vehicle id="W_E_134" type="standard_car" route="W_E" depart="469" departLane="random" departSpeed="10" />
    <vehicle id="E_W_135" type="standard_car" route="E_W" depart="471" departLane="random" departSpeed="10" />
    <vehicle id="E_N_136" type="standard_car" route="E_N" depart="471" departLane="random" departSpeed="10" />
    <vehicle id="S_N_137" type="standard_car" route="S_N" depart="473" departLane="random" departSpeed="10" />
    <vehicle id="N_S_138" type="standard_car" route="N_S" depart="475" departLane="random" departSpeed="10" />
    <vehicle id="S_N_139" type="standard_car" route="S_N" depart="478" departLane="random" departSpeed="10" />
    <vehicle id="S_N_140" type="standard_car" route="S_N" depart="478" departLane="random" departSpeed="10" />
    <vehicle id="N_W_141" type="standard_car" route="N_W" depart="479" departLane="random" departSpeed="10" />
    <vehicle id="E_N_142" type="standard_car" route="E_N" depart="480" departLane="random" departSpeed="10" />
    <vehicle id="S_E_143" type="standard_car" route="S_E" depart="481" departLane="random" departSpeed="10" />
    <vehicle id="S_N_144" type="standard_car" route="S_N" depart="482" departLane="random" departSpeed="10" />
    <vehicle id="S_N_145" type="standard_car" route="S_N" depart="482" departLane="random" departSpeed="10" />
    <vehicle id="S_N_146" type="standard_car" route="S_N" depart="485" departLane="random" departSpeed="10" />
    <vehicle id="S_N_147" type="standard_car" route="S_N" depart="488" departLane="random" departSpeed="10" />
    <vehicle id="S_N_148" type="standard_car" route="S_N" depart="489" departLane="random" departSpeed="10" />
    <vehicle id="N_S_149" type="standard_car" route="N_S" depart="494" departLane="random" departSpeed="10" />
    <vehicle id="E_W_150" type="standard_car" route="E_W" depart="498" departLane="random" departSpeed="10" />
    <vehicle id="E_N_151" type="standard_car" route="E_N" depart="500" departLane="random" departSpeed="10" />
    <vehicle id="E_W_152" type="standard_car" route="E_W" depart="504" departLane="random" departSpeed="10" />
    <vehicle id="E_W_153" type="standard_car" route="E_W" depart="504" departLane="random" departSpeed="10" />
    <vehicle id="S_E_154" type="standard_car" route="S_E" depart="505" departLane="random" departSpeed="10" />
    <vehicle id="E_W_155" type="standard_car" route="E_W" depart="508" departLane="random" departSpeed="10" />
    <vehicle id="S_N_156" type="standard_car" route="S_N" depart="509" departLane="random" departSpeed="10" />
    <vehicle id="S_N_157" type="standard_car" route="S_N" depart="513" departLane="random" departSpeed="10" />
    <vehicle id="S_N_158" type="standard_car" route="S_N" depart="514" departLane="random" departSpeed="10" />
    <vehicle id="E_W_159" type="standard_car" route="E_W" depart="518" departLane="random" departSpeed="10" />
    <vehicle id="W_S_160" type="standard_car" route="W_S" depart="521" departLane="random" departSpeed="10" />
    <vehicle id="W_S_161" type="standard_car" route="W_S" depart="522" departLane="random" departSpeed="10" />
    <vehicle id="W_E_162" type="standard_car" route="W_E" depart="523" departLane="random" departSpeed="10" />
    <vehicle id="S_N_163" type="standard_car" route="S_N" depart="523" departLane="random" departSpeed="10" />
    <vehicle id="W_E_164" type="standard_car" route="W_E" depart="524" departLane="random" departSpeed="10" />
    <vehicle id="N_S_165" type="standard_car" route="N_S" depart="531" departLane="random" departSpeed="10" />
    <vehicle id="N_S_166" type="standard_car" route="N_S" depart="531" departLane="random" departSpeed="10" />
    <vehicle id="E_W_167" type="standard_car" route="E_W" depart="532" departLane="random" departSpeed="10" />
    <vehicle id="W_S_168" type="standard_car" route="W_S" depart="532" departLane="random" departSpeed="10" />
    <vehicle id="S_N_169" type="standard_car" route="S_N" depart="534" departLane="random" departSpeed="10" />
    <vehicle id="N_S_170" type="standard_car" route="N_S" depart="538" departLane="random" departSpeed="10" />
    <vehicle id="E_W_171" type="standard_car" route="E_W" depart="539" departLane="random" departSpeed="10" />
    <vehicle id="S_E_172" type="standard_car" route="S_E" depart="543" departLane="random" departSpeed="10" />
    <vehicle id="E_W_173" type="standard_car" route="E_W" depart="551" departLane="random" departSpeed="10" />
    <vehicle id="E_W_174" type="standard_car" route="E_W" depart="552" departLane="random" departSpeed="10" />
    <vehicle id="E_W_175" type="standard_car" route="E_W" depart="556" departLane="random" departSpeed="10" />
    <vehicle id="W_E_176" type="standard_car" route="W_E" depart="561" departLane="random" departSpeed="10" />
    <vehicle id="S_N_177" type="standard_car" route="S_N" depart="562" departLane="random" departSpeed="10" />
    <vehicle id="W_S_178" type="standard_car" route="W_S" depart="565" departLane="random" departSpeed="10" />
    <vehicle id="N_S_179" type="standard_car" route="N_S" depart="566" departLane="random" departSpeed="10" />
    <vehicle id="N_S_180" type="standard_car" route="N_S" depart="572" departLane="random" departSpeed="10" />
    <vehicle id="N_W_181" type="standard_car" route="N_W" depart="573" departLane="random" departSpeed="10" />
    <vehicle id="W_E_182" type="standard_car" route="W_E" depart="574" departLane="random" departSpeed="10" />
    <vehicle id="S_E_183" type="standard_car" route="S_E" depart="575" departLane="random" departSpeed="10" />
    <vehicle id="S_N_184" type="standard_car" route="S_N" depart="576" departLane="random" departSpeed="10" />
    <vehicle id="E_N_185" type="standard_car" route="E_N" depart="576" departLane="random" departSpeed="10" />
    <vehicle id="N_W_186" type="standard_car" route="N_W" depart="577" departLane="random" departSpeed="10" />
    <vehicle id="N_W_187" type="standard_car" route="N_W" depart="577" departLane="random" departSpeed="10" />
    <vehicle id="W_E_188" type="standard_car" route="W_E" depart="578" departLane="random" departSpeed="10" />
    <vehicle id="W_E_189" type="standard_car" route="W_E" depart="580" departLane="random" departSpeed="10" />
    <vehicle id="W_E_190" type="standard_car" route="W_E" depart="580" departLane="random" departSpeed="10" />
    <vehicle id="E_N_191" type="standard_car" route="E_N" depart="583" departLane="random" departSpeed="10" />
    <vehicle id="W_E_192" type="standard_car" route="W_E" depart="583" departLane="random" departSpeed="10" />
    <vehicle id="S_N_193" type="standard_car" route="S_N" depart="584" departLane="random" departSpeed="10" />
    <vehicle id="N_W_194" type="standard_car" route="N_W" depart="585" departLane="random" departSpeed="10" />
    <vehicle id="E_W_195" type="standard_car" route="E_W" depart="585" departLane="random" departSpeed="10" />
    <vehicle id="S_E_196" type="standard_car" route="S_E" depart="585" departLane="random" departSpeed="10" />
    <vehicle id="E_N_197" type="standard_car" route="E_N" depart="585" departLane="random" departSpeed="10" />
    <vehicle id="S_N_198" type="standard_car" route="S_N" depart="588" departLane="random" departSpeed="10" />
    <vehicle id="S_N_199" type="standard_car" route="S_N" depart="588" departLane="random" departSpeed="10" />
    <vehicle id="N_S_200" type="standard_car" route="N_S" depart="590" departLane="random" departSpeed="10" />
    <vehicle id="E_N_201" type="standard_car" route="E_N" depart="590" departLane="random" departSpeed="10" />
    <vehicle id="N_S_202" type="standard_car" route="N_S" depart="591" departLane="random" departSpeed="10" />
    <vehicle id="S_N_203" type="standard_car" route="S_N" depart="591" departLane="random" departSpeed="10" />
    <vehicle id="S_N_204" type="standard_car" route="S_N" depart="592" departLane="random" departSpeed="10" />
    <vehicle id="S_N_205" type="standard_car" route="S_N" depart="592" departLane="random" departSpeed="10" />
    <vehicle id="N_S_206" type="standard_car" route="N_S" depart="594" departLane="random" departSpeed="10" />
    <vehicle id="E_W_207" type="standard_car" route="E_W" depart="595" departLane="random" departSpeed="10" />
    <vehicle id="E_W_208" type="standard_car" route="E_W" depart="596" departLane="random" departSpeed="10" />
    <vehicle id="W_E_209" type="standard_car" route="W_E" depart="596" departLane="random" departSpeed="10" />
    <vehicle id="E_W_210" type="standard_car" route="E_W" depart="598" departLane="random" departSpeed="10" />
    <vehicle id="E_W_211" type="standard_car" route="E_W" depart="599" departLane="random" departSpeed="10" />
    <vehicle id="N_W_212" type="standard_car" route="N_W" depart="599" departLane="random" departSpeed="10" />
    <vehicle id="W_S_213" type="standard_car" route="W_S" depart="600" departLane="random" departSpeed="10" />
    <vehicle id="W_E_214" type="standard_car" route="W_E" depart="602" departLane="random" departSpeed="10" />
    <vehicle id="W_S_215" type="standard_car" route="W_S" depart="604" departLane="random" departSpeed="10" />
    <vehicle id="E_W_216" type="standard_car" route="E_W" depart="605" departLane="random" departSpeed="10" />
    <vehicle id="E_W_217" type="standard_car" route="E_W" depart="606" departLane="random" departSpeed="10" />
    <vehicle id="E_W_218" type="standard_car" route="E_W" depart="606" departLane="random" departSpeed="10" />
    <vehicle id="N_W_219" type="standard_car" route="N_W" depart="606" departLane="random" departSpeed="10" />
    <vehicle id="W_E_220" type="standard_car" route="W_E" depart="607" departLane="random" departSpeed="10" />
    <vehicle id="W_E_221" type="standard_car" route="W_E" depart="607" departLane="random" departSpeed="10" />
    <vehicle id="S_N_222" type="standard_car" route="S_N" depart="609" departLane="random" departSpeed="10" />
    <vehicle id="W_S_223" type="standard_car" route="W_S" depart="611" departLane="random" departSpeed="10" />
    <vehicle id="N_S_224" type="standard_car" route="N_S" depart="613" departLane="random" departSpeed="10" />
    <vehicle id="E_W_225" type="standard_car" route="E_W" depart="614" departLane="random" departSpeed="10" />
    <vehicle id="E_W_226" type="standard_car" route="E_W" depart="614" departLane="random" departSpeed="10" />
    <vehicle id="E_N_227" type="standard_car" route="E_N" depart="616" departLane="random" departSpeed="10" />
    <vehicle id="S_N_228" type="standard_car" route="S_N" depart="616" departLane="random" departSpeed="10" />
    <vehicle id="N_W_229" type="standard_car" route="N_W" depart="616" departLane="random" departSpeed="10" />
    <vehicle id="W_E_230" type="standard_car" route="W_E" depart="619" departLane="random" departSpeed="10" />
    <vehicle id="E_W_231" type="standard_car" route="E_W" depart="621" departLane="random" departSpeed="10" />
    <vehicle id="E_N_232" type="standard_car" route="E_N" depart="621" departLane="random" departSpeed="10" />
    <vehicle id="W_E_233" type="standard_car" route="W_E" depart="621" departLane="random" departSpeed="10" />
    <vehicle id="W_S_234" type="standard_car" route="W_S" depart="622" departLane="random" departSpeed="10" />
    <vehicle id="N_S_235" type="standard_car" route="N_S" depart="623" departLane="random" departSpeed="10" />
    <vehicle id="N_S_236" type="standard_car" route="N_S" depart="626" departLane="random" departSpeed="10" />
    <vehicle id="W_S_237" type="standard_car" route="W_S" depart="631" departLane="random" departSpeed="10" />
    <vehicle id="W_S_238" type="standard_car" route="W_S" depart="631" departLane="random" departSpeed="10" />
    <vehicle id="N_S_239" type="standard_car" route="N_S" depart="631" departLane="random" departSpeed="10" />
    <vehicle id="E_W_240" type="standard_car" route="E_W" depart="631" departLane="random" departSpeed="10" />
    <vehicle id="W_S_241" type="standard_car" route="W_S" depart="632" departLane="random" departSpeed="10" />
    <vehicle id="S_N_242" type="standard_car" route="S_N" depart="632" departLane="random" departSpeed="10" />
    <vehicle id="N_S_243" type="standard_car" route="N_S" depart="633" departLane="random" departSpeed="10" />
    <vehicle id="E_N_244" type="standard_car" route="E_N" depart="634" departLane="random" departSpeed="10" />
    <vehicle id="S_N_245" type="standard_car" route="S_N" depart="636" departLane="random" departSpeed="10" />
    <vehicle id="S_E_246" type="standard_car" route="S_E" depart="636" departLane="random" departSpeed="10" />
    <vehicle id="E_N_247" type="standard_car" route="E_N" depart="636" departLane="random" departSpeed="10" />
    <vehicle id="W_E_248" type="standard_car" route="W_E" depart="636" departLane="random" departSpeed="10" />
    <vehicle id="S_E_249" type="standard_car" route="S_E" depart="636" departLane="random" departSpeed="10" />
    <vehicle id="S_N_250" type="standard_car" route="S_N" depart="637" departLane="random" departSpeed="10" />
    <vehicle id="N_S_251" type="standard_car" route="N_S" depart="638" departLane="random" departSpeed="10" />
    <vehicle id="W_S_252" type="standard_car" route="W_S" depart="639" departLane="random" departSpeed="10" />
    <vehicle id="S_E_253" type="standard_car" route="S_E" depart="639" departLane="random" departSpeed="10" />
    <vehicle id="W_E_254" type="standard_car" route="W_E" depart="640" departLane="random" departSpeed="10" />
    <vehicle id="W_E_255" type="standard_car" route="W_E" depart="640" departLane="random" departSpeed="10" />
    <vehicle id="E_W_256" type="standard_car" route="E_W" depart="640" departLane="random" departSpeed="10" />
    <vehicle id="N_S_257" type="standard_car" route="N_S" depart="644" departLane="random" departSpeed="10" />
    <vehicle id="E_W_258" type="standard_car" route="E_W" depart="644" departLane="random" departSpeed="10" />
    <vehicle id="N_S_259" type="standard_car" route="N_S" depart="644" departLane="random" departSpeed="10" />
    <vehicle id="W_E_260" type="standard_car" route="W_E" depart="650" departLane="random" departSpeed="10" />
    <vehicle id="W_E_261" type="standard_car" route="W_E" depart="654" departLane="random" departSpeed="10" />
    <vehicle id="N_S_262" type="standard_car" route="N_S" depart="658" departLane="random" departSpeed="10" />
    <vehicle id="W_E_263" type="standard_car" route="W_E" depart="662" departLane="random" departSpeed="10" />