<routes>
            <vType id="emergency" accel="3.0" decel="6.0" color="1,0,0" maxSpeed="20" sigma="0.5" emergency="true" />
            <vType id="standard_car" accel="1.0" decel="4.5" length="5.0" minGap="2.5" maxSpeed="25" sigma="0.5" />
            <route id="E_W" edges="2_E2TL 2_TL2W TL2W" />
            <route id="W_E" edges="W2TL TL2E 2_TL2E" />
            <route id="N_S_1" edges="2_N2TL 2_TL2S" />
            <route id="N_S_2" edges="N2TL TL2S" />
            <route id="S_N_1" edges="S2TL TL2N" />
            <route id="S_N_2" edges="2_S2TL 2_TL2N" />
            <route id="N_W" edges="2_N2TL 2_TL2W" />
            <route id="S_E" edges="S2TL TL2E" />
            <route id="E_N" edges="2_E2TL 2_TL2N" />
            <route id="W_S" edges="W2TL TL2E 2_TL2S" />
    <vehicle id="W_E_0" type="standard_car" route="W_E" depart="54" departLane="random" departSpeed="10" />
    <vehicle id="S_E_1" type="standard_car" route="S_E" depart="79" departLane="random" departSpeed="10" />
    <vehicle id="W_S_2" type="standard_car" route="W_S" depart="85" departLane="random" departSpeed="10" />
    <vehicle id="N_S_1_3" type="standard_car" route="N_S_1" depart="90" departLane="random" departSpeed="10" />
    <vehicle id="N_S_2_4" type="standard_car" route="N_S_2" depart="104" departLane="random" departSpeed="10" />
    <vehicle id="E_N_5" type="standard_car" route="E_N" depart="108" departLane="random" departSpeed="10" />
    <vehicle id="N_W_6" type="standard_car" route="N_W" depart="114" departLane="random" departSpeed="10" />
    <vehicle id="E_W_7" type="standard_car" route="E_W" depart="117" departLane="random" departSpeed="10" />
    <vehicle id="S_N_2_8" type="standard_car" route="S_N_2" depart="121" departLane="random" departSpeed="10" />
    <vehicle id="S_N_1_9" type="standard_car" route="S_N_1" depart="123" departLane="random" departSpeed="10" />
    <vehicle id="S_N_2_10" type="standard_car" route="S_N_2" depart="129" departLane="random" departSpeed="10" />
    <vehicle id="W_S_11" type="standard_car" route="W_S" depart="135" departLane="random" departSpeed="10" />
    <vehicle id="W_S_12" type="standard_car" route="W_S" depart="157" departLane="random" departSpeed="10" />
    <vehicle id="S_N_1_13" type="standard_car" route="S_N_1" depart="158" departLane="random" departSpeed="10" />
    <vehicle id="N_S_1_14" type="standard_car" route="N_S_1" depart="161" departLane="random" departSpeed="10" />
    <vehicle id="S_N_2_15" type="standard_car" route="S_N_2" depart="161" departLane="random" departSpeed="10" />
    <vehicle id="E_W_16" type="standard_car" route="E_W" depart="162" departLane="random" departSpeed="10" />
    <vehicle id="S_E_17" type="standard_car" route="S_E" depart="163" departLane="random" departSpeed="10" />
    <vehicle id="E_N_18" type="standard_car" route="E_N" depart="164" departLane="random" departSpeed="10" />
    <vehicle id="E_W_19" type="standard_car" route="E_W" depart="166" departLane="random" departSpeed="10" />
    <vehicle id="W_S_20" type="standard_car" route="W_S" depart="175" departLane="random" departSpeed="10" />
    <vehicle id="W_E_21" type="standard_car" route="W_E" depart="179" departLane="random" departSpeed="10" />
    <vehicle id="N_S_2_22" type="standard_car" route="N_S_2" depart="183" departLane="random" departSpeed="10" />
    <vehicle id="E_N_23" type="standard_car" route="E_N" depart="185" departLane="random" departSpeed="10" />
    <vehicle id="S_N_2_24" type="standard_car" route="S_N_2" depart="189" departLane="random" departSpeed="10" />
    <vehicle id="E_W_25" type="standard_car" route="E_W" depart="194" departLane="random" departSpeed="10" />
    <vehicle id="W_E_26" type="standard_car" route="W_E" depart="198" departLane="random" departSpeed="10" />
    <vehicle id="W_S_27" type="standard_car" route="W_S" depart="206" departLane="random" departSpeed="10" />
    <vehicle id="N_S_2_28" type="standard_car" route="N_S_2" depart="206" departLane="random" departSpeed="10" />
    <vehicle id="E_W_29" type="standard_car" route="E_W" depart="213" departLane="random" departSpeed="10" />
    <vehicle id="W_S_30" type="standard_car" route="W_S" depart="222" departLane="random" departSpeed="10" />
    <vehicle id="S_N_1_31" type="standard_car" route="S_N_1" depart="232" departLane="random" departSpeed="10" />
    <vehicle id="W_E_32" type="standard_car" route="W_E" depart="237" departLane="random" departSpeed="10" />
    <vehicle id="E_W_33" type="standard_car" route="E_W" depart="238" departLane="random" departSpeed="10" />
    <vehicle id="W_S_34" type="standard_car" route="W_S" depart="246" departLane="random" departSpeed="10" />
    <vehicle id="S_E_35" type="standard_car" route="S_E" depart="248" departLane="random" departSpeed="10" />
    <vehicle id="N_S_1_36" type="standard_car" route="N_S_1" depart="248" departLane="random" departSpeed="10" />
    <vehicle id="E_W_37" type="standard_car" route="E_W" depart="252" departLane="random" departSpeed="10" />
    <vehicle id="S_N_1_38" type="standard_car" route="S_N_1" depart="253" departLane="random" departSpeed="10" />
    <vehicle id="S_E_39" type="standard_car" route="S_E" depart="263" departLane="random" departSpeed="10" />
    <vehicle id="W_E_40" type="standard_car" route="W_E" depart="266" departLane="random" departSpeed="10" />
    <vehicle id="N_W_41" type="standard_car" route="N_W" depart="266" departLane="random" departSpeed="10" />
    <vehicle id="S_E_42" type="standard_car" route="S_E" depart="279" departLane="random" departSpeed="10" />
    <vehicle id="E_N_43" type="standard_car" route="E_N" depart="280" departLane="random" departSpeed="10" />
    <vehicle id="E_W_44" type="standard_car" route="E_W" depart="287" departLane="random" departSpeed="10" />
    <vehicle id="S_N_1_45" type="standard_car" route="S_N_1" depart="287" departLane="random" departSpeed="10" />
    <vehicle id="N_W_46" type="standard_car" route="N_W" depart="288" departLane="random" departSpeed="10" />
    <vehicle id="N_S_2_47" type="standard_car" route="N_S_2" depart="290" departLane="random" departSpeed="10" />
    <vehicle id="E_W_48" type="standard_car" route="E_W" depart="292" departLane="random" departSpeed="10" />
    <vehicle id="S_E_49" type="standard_car" route="S_E" depart="298" departLane="random" departSpeed="10" />
    <vehicle id="N_S_2_50" type="standard_car" route="N_S_2" depart="299" departLane="random" departSpeed="10" />
    <vehicle id="S_N_1_51" type="standard_car" route="S_N_1" depart="299" departLane="random" departSpeed="10" />
    <vehicle id="E_N_52" type="standard_car" route="E_N" depart="302" departLane="random" departSpeed="10" />
    <vehicle id="W_E_53" type="standard_car" route="W_E" depart="303" departLane="random" departSpeed="10" />
    <vehicle id="N_S_2_54" type="standard_car" route="N_S_2" depart="307" departLane="random" departSpeed="10" />
    <vehicle id="W_E_55" type="standard_car" route="W_E" depart="310" departLane="random" departSpeed="10" />
    <vehicle id="W_S_56" type="standard_car" route="W_S" depart="312" departLane="random" departSpeed="10" />
    <vehicle id="W_E_57" type="standard_car" route="W_E" depart="316" departLane="random" departSpeed="10" />
    <vehicle id="E_W_58" type="standard_car" route="E_W" depart="317" departLane="random" departSpeed="10" />
    <vehicle id="W_E_59" type="standard_car" route="W_E" depart="319" departLane="random" departSpeed="10" />
    <vehicle id="E_N_60" type="standard_car" route="E_N" depart="321" departLane="random" departSpeed="10" />
    <vehicle id="N_S_1_61" type="standard_car" route="N_S_1" depart="329" departLane="random" departSpeed="10" />
    <vehicle id="S_N_2_62" type="standard_car" route="S_N_2" depart="329" departLane="random" departSpeed="10" />
    <vehicle id="S_N_2_63" type="standard_car" route="S_N_2" depart="336" departLane="random" departSpeed="10" />
    <vehicle id="N_S_2_64" type="standard_car" route="N_S_2" depart="350" departLane="random" departSpeed="10" />
    <vehicle id="S_N_1_65" type="standard_car" route="S_N_1" depart="351" departLane="random" departSpeed="10" />
    <vehicle id="W_E_66" type="standard_car" route="W_E" depart="352" departLane="random" departSpeed="10" />
    <vehicle id="W_E_67" type="standard_car" route="W_E" depart="356" departLane="random" departSpeed="10" />
    <vehicle id="W_S_68" type="standard_car" route="W_S" depart="357" departLane="random" departSpeed="10" />
    <vehicle id="N_W_69" type="standard_car" route="N_W" depart="359" departLane="random" departSpeed="10" />
    <vehicle id="N_S_2_70" type="standard_car" route="N_S_2" depart="360" departLane="random" departSpeed="10" />
    <vehicle id="S_N_1_71" type="standard_car" route="S_N_1" depart="362" departLane="random" departSpeed="10" />
    <vehicle id="E_W_72" type="standard_car" route="E_W" depart="363" departLane="random" departSpeed="10" />
    <vehicle id="W_S_73" type="standard_car" route="W_S" depart="365" departLane="random" departSpeed="10" />
    <vehicle id="S_N_2_74" type="standard_car" route="S_N_2" depart="370" departLane="random" departSpeed="10" />
    <vehicle id="W_S_75" type="standard_car" route="W_S" depart="372" departLane="random" departSpeed="10" />
    <vehicle id="N_S_2_76" type="standard_car" route="N_S_2" depart="372" departLane="random" departSpeed="10" />
    <vehicle id="W_E_77" type="standard_car" route="W_E" depart="372" departLane="random" departSpeed="10" />
    <vehicle id="S_N_2_78" type="standard_car" route="S_N_2" depart="375" departLane="random" departSpeed="10" />
    <vehicle id="N_W_79" type="standard_car" route="N_W" depart="378" departLane="random" departSpeed="10" />
    <vehicle id="E_W_80" type="standard_car" route="E_W" depart="380" departLane="random" departSpeed="10" />
    <vehicle id="N_S_2_81" type="standard_car" route="N_S_2" depart="380" departLane="random" departSpeed="10" />
    <vehicle id="N_W_82" type="standard_car" route="N_W" depart="385" departLane="random" departSpeed="10" />
    <vehicle id="N_S_1_83" type="standard_car" route="N_S_1" depart="387" departLane="random" departSpeed="10" />
    <vehicle id="E_W_84" type="standard_car" route="E_W" depart="389" departLane="random" departSpeed="10" />
    <vehicle id="E_N_85" type="standard_car" route="E_N" depart="394" departLane="random" departSpeed="10" />
    <vehicle id="W_E_86" type="standard_car" route="W_E" depart="395" departLane="random" departSpeed="10" />
    <vehicle id="N_S_2_87" type="standard_car" route="N_S_2" depart="395" departLane="random" departSpeed="10" />
    <vehicle id="W_S_88" type="standard_car" route="W_S" depart="403" departLane="random" departSpeed="10" />
    <vehicle id="N_S_2_89" type="standard_car" route="N_S_2" depart="404" departLane="random" departSpeed="10" />
    <vehicle id="S_E_90" type="standard_car" route="S_E" depart="405" departLane="random" departSpeed="10" />
    <vehicle id="W_E_91" type="standard_car" route="W_E" depart="410" departLane="random" departSpeed="10" />
    <vehicle id="S_N_2_92" type="standard_car" route="S_N_2" depart="412" departLane="random" departSpeed="10" />
    <vehicle id="N_S_1_93" type="standard_car" route="N_S_1" depart="413" departLane="random" departSpeed="10" />
    <vehicle id="N_W_94" type="standard_car" route="N_W" depart="415" departLane="random" departSpeed="10" />
    <vehicle id="E_W_95" type="standard_car" route="E_W" depart="417" departLane="random" departSpeed="10" />
    <vehicle id="W_E_96" type="standard_car" route="W_E" depart="419" departLane="random" departSpeed="10" />
    <vehicle id="N_S_2_97" type="standard_car" route="N_S_2" depart="419" departLane="random" departSpeed="10" />
    <vehicle id="S_E_98" type="standard_car" route="S_E" depart="420" departLane="random" departSpeed="10" />
    <vehicle id="N_S_1_99" type="standard_car" route="N_S_1" depart="421" departLane="random" departSpeed="10" />
    <vehicle id="S_N_2_100" type="standard_car" route="S_N_2" depart="423" departLane="random" departSpeed="10" />
    <vehicle id="W_S_101" type="standard_car" route="W_S" depart="425" departLane="random" departSpeed="10" />
    <vehicle id="S_N_2_102" type="standard_car" route="S_N_2" depart="426" departLane="random" departSpeed="10" />
    <vehicle id="N_S_1_103" type="standard_car" route="N_S_1" depart="426" departLane="random" departSpeed="10" />
    <vehicle id="W_E_104" type="standard_car" route="W_E" depart="432" departLane="random" departSpeed="10" />
    <vehicle id="N_S_2_105" type="standard_car" route="N_S_2" depart="434" departLane="random" departSpeed="10" />
    <vehicle id="W_S_106" type="standard_car" route="W_S" depart="436" departLane="random" departSpeed="10" />
    <vehicle id="W_E_107" type="standard_car" route="W_E" depart="437" departLane="random" departSpeed="10" />
    <vehicle id="N_W_108" type="standard_car" route="N_W" depart="440" departLane="random" departSpeed="10" />
    <vehicle id="W_S_109" type="standard_car" route="W_S" depart="440" departLane="random" departSpeed="10" />
    <vehicle id="E_N_110" type="standard_car" route="E_N" depart="444" departLane="random" departSpeed="10" />
    <vehicle id="N_W_111" type="standard_car" route="N_W" depart="446" departLane="random" departSpeed="10" />
    <vehicle id="N_S_2_112" type="standard_car" route="N_S_2" depart="447" departLane="random" departSpeed="10" />
    <vehicle id="S_E_113" type="standard_car" route="S_E" depart="448" departLane="random" departSpeed="10" />
    <vehicle id="S_E_114" type="standard_car" route="S_E" depart="450" departLane="random" departSpeed="10" />
    <vehicle id="S_N_2_115" type="standard_car" route="S_N_2" depart="451" departLane="random" departSpeed="10" />
    <vehicle id="N_S_2_116" type="standard_car" route="N_S_2" depart="452" departLane="random" departSpeed="10" />
    <vehicle id="S_N_1_117" type="standard_car" route="S_N_1" depart="452" departLane="random" departSpeed="10" />
    <vehicle id="N_S_1_118" type="standard_car" route="N_S_1" depart="454" departLane="random" departSpeed="10" />
    <vehicle id="N_W_119" type="standard_car" route="N_W" depart="458" departLane="random" departSpeed="10" />
    <vehicle id="E_W_120" type="standard_car" route="E_W" depart="459" departLane="random" departSpeed="10" />
    <vehicle id="S_N_2_121" type="standard_car" route="S_N_2" depart="463" departLane="random" departSpeed="10" />
    <vehicle id="N_W_122" type="standard_car" route="N_W" depart="465" departLane="random" departSpeed="10" />
    <vehicle id="S_N_1_123" type="standard_car" route="S_N_1" depart="467" departLane="random" departSpeed="10" />
    <vehicle id="N_S_1_124" type="standard_car" route="N_S_1" depart="468" departLane="random" departSpeed="10" />
    <vehicle id="S_E_125" type="standard_car" route="S_E" depart="469" departLane="random" departSpeed="10" />
    <vehicle id="E_N_126" type="standard_car" route="E_N" depart="469" departLane="random" departSpeed="10" />
    <vehicle id="S_E_127" type="standard_car" route="S_E" depart="473" departLane="random" departSpeed="10" />
    <vehicle id="E_W_128" type="standard_car" route="E_W" depart="473" departLane="random" departSpeed="10" />
    <vehicle id="S_E_129" type="standard_car" route="S_E" depart="473" departLane="random" departSpeed="10" />
    <vehicle id="S_N_1_130" type="standard_car" route="S_N_1" depart="475" departLane="random" departSpeed="10" />
    <vehicle id="N_S_1_131" type="standard_car" route="N_S_1" depart="476" departLane="random" departSpeed="10" />
    <vehicle id="W_E_132" type="standard_car" route="W_E" depart="478" departLane="random" departSpeed="10" />
    <vehicle id="W_E_133" type="standard_car" route="W_E" depart="480" departLane="random" departSpeed="10" />
    <vehicle id="E_W_134" type="standard_car" route="E_W" depart="480" departLane="random" departSpeed="10" />
    <vehicle id="E_W_135" type="standard_car" route="E_W" depart="484" departLane="random" departSpeed="10" />
    <vehicle id="W_S_136" type="standard_car" route="W_S" depart="486" departLane="random" departSpeed="10" />
    <vehicle id="N_S_2_137" type="standard_car" route="N_S_2" depart="490" departLane="random" departSpeed="10" />
    <vehicle id="S_N_1_138" type="standard_car" route="S_N_1" depart="493" departLane="random" departSpeed="10" />
    <vehicle id="W_S_139" type="standard_car" route="W_S" depart="497" departLane="random" departSpeed="10" />
    <vehicle id="N_S_1_140" type="standard_car" route="N_S_1" depart="497" departLane="random" departSpeed="10" />
    <vehicle id="S_N_2_141" type="standard_car" route="S_N_2" depart="498" departLane="random" departSpeed="10" />
    <vehicle id="S_N_2_142" type="standard_car" route="S_N_2" depart="500" departLane="random" departSpeed="10" />
    <vehicle id="S_N_1_143" type="standard_car" route="S_N_1" depart="501" departLane="random" departSpeed="10" />
    <vehicle id="E_W_144" type="standard_car" route="E_W" depart="501" departLane="random" departSpeed="10" />
    <vehicle id="N_W_145" type="standard_car" route="N_W" depart="501" departLane="random" departSpeed="10" />
    <vehicle id="E_W_146" type="standard_car" route="E_W" depart="502" departLane="random" departSpeed="10" />
    <vehicle id="N_W_147" type="standard_car" route="N_W" depart="504" departLane="random" departSpeed="10" />
    <vehicle id="S_E_148" type="standard_car" route="S_E" depart="505" departLane="random" departSpeed="10" />
    <vehicle id="N_S_1_149" type="standard_car" route="N_S_1" depart="505" departLane="random" departSpeed="10" />
    <vehicle id="W_S_150" type="standard_car" route="W_S" depart="507" departLane="random" departSpeed="10" />
    <vehicle id="S_N_2_151" type="standard_car" route="S_N_2" depart="507" departLane="random" departSpeed="10" />
    <vehicle id="W_S_152" type="standard_car" route="W_S" depart="508" departLane="random" departSpeed="10" />
    <vehicle id="W_E_153" type="standard_car" route="W_E" depart="508" departLane="random" departSpeed="10" />
    <vehicle id="S_N_2_154" type="standard_car" route="S_N_2" depart="515" departLane="random" departSpeed="10" />
    <vehicle id="S_N_2_155" type="standard_car" route="S_N_2" depart="517" departLane="random" departSpeed="10" />
    <vehicle id="E_W_156" type="standard_car" route="E_W" depart="519" departLane="random" departSpeed="10" />
    <vehicle id="E_N_157" type="standard_car" route="E_N" depart="519" departLane="random" departSpeed="10" />
    <vehicle id="W_E_158" type="standard_car" route="W_E" depart="521" departLane="random" departSpeed="10" />
    <vehicle id="S_N_1_159" type="standard_car" route="S_N_1" depart="523" departLane="random" departSpeed="10" />
    <vehicle id="S_E_160" type="standard_car" route="S_E" depart="527" departLane="random" departSpeed="10" />
    <vehicle id="S_N_2_161" type="standard_car" route="S_N_2" depart="528" departLane="random" departSpeed="10" />
    <vehicle id="N_W_162" type="standard_car" route="N_W" depart="530" departLane="random" departSpeed="10" />
    <vehicle id="N_S_2_163" type="standard_car" route="N_S_2" depart="531" departLane="random" departSpeed="10" />
    <vehicle id="N_S_1_164" type="standard_car" route="N_S_1" depart="534" departLane="random" departSpeed="10" />
    <vehicle id="S_N_2_165" type="standard_car" route="S_N_2" depart="538" departLane="random" departSpeed="10" />
    <vehicle id="N_S_2_166" type="standard_car" route="N_S_2" depart="538" departLane="random" departSpeed="10" />
    <vehicle id="W_S_167" type="standard_car" route="W_S" depart="538" departLane="random" departSpeed="10" />
    <vehicle id="S_E_168" type="standard_car" route="S_E" depart="539" departLane="random" departSpeed="10" />
    <vehicle id="N_S_2_169" type="standard_car" route="N_S_2" depart="541" departLane="random" departSpeed="10" />
    <vehicle id="W_E_170" type="standard_car" route="W_E" depart="544" departLane="random" departSpeed="10" />
    <vehicle id="S_N_1_171" type="standard_car" route="S_N_1" depart="544" departLane="random" departSpeed="10" />
    <vehicle id="S_E_172" type="standard_car" route="S_E" depart="545" departLane="random" departSpeed="10" />
    <vehicle id="W_E_173" type="standard_car" route="W_E" depart="545" departLane="random" departSpeed="10" />
    <vehicle id="S_N_2_174" type="standard_car" route="S_N_2" depart="546" departLane="random" departSpeed="10" />
    <vehicle id="S_N_2_175" type="standard_car" route="S_N_2" depart="548" departLane="random" departSpeed="10" />
    <vehicle id="S_E_176" type="standard_car" route="S_E" depart="550" departLane="random" departSpeed="10" />
    <vehicle id="E_N_177" type="standard_car" route="E_N" depart="550" departLane="random" departSpeed="10" />
    <vehicle id="N_S_2_178" type="standard_car" route="N_S_2" depart="553" departLane="random" departSpeed="10" />
    <vehicle id="W_E_179" type="standard_car" route="W_E" depart="554" departLane="random" departSpeed="10" />
    <vehicle id="N_W_180" type="standard_car" route="N_W" depart="555" departLane="random" departSpeed="10" />
    <vehicle id="S_E_181" type="standard_car" route="S_E" depart="556" departLane="random" departSpeed="10" />
    <vehicle id="W_S_182" type="standard_car" route="W_S" depart="558" departLane="random" departSpeed="10" />
    <vehicle id="S_N_2_183" type="standard_car" route="S_N_2" depart="558" departLane="random" departSpeed="10" />
    <vehicle id="W_E_184" type="standard_car" route="W_E" depart="560" departLane="random" departSpeed="10" />
    <vehicle id="S_N_1_185" type="standard_car" route="S_N_1" depart="562" departLane="random" departSpeed="10" />
    <vehicle id="S_N_2_186" type="standard_car" route="S_N_2" depart="563" departLane="random" departSpeed="10" />
    <vehicle id="S_E_187" type="standard_car" route="S_E" depart="567" departLane="random" departSpeed="10" />
    <vehicle id="N_W_188" type="standard_car" route="N_W" depart="570" departLane="random" departSpeed="10" />
    <vehicle id="N_S_2_189" type="standard_car" route="N_S_2" depart="570" departLane="random" departSpeed="10" />
    <vehicle id="W_E_190" type="standard_car" route="W_E" depart="570" departLane="random" departSpeed="10" />
    <vehicle id="S_N_1_191" type="standard_car" route="S_N_1" depart="571" departLane="random" departSpeed="10" />
    <vehicle id="S_E_192" type="standard_car" route="S_E" depart="571" departLane="random" departSpeed="10" />
    <vehicle id="N_W_193" type="standard_car" route="N_W" depart="572" departLane="random" departSpeed="10" />
    <vehicle id="S_N_1_194" type="standard_car" route="S_N_1" depart="573" departLane="random" departSpeed="10" />
    <vehicle id="N_S_2_195" type="standard_car" route="N_S_2" depart="574" departLane="random" departSpeed="10" />
    <vehicle id="E_W_196" type="standard_car" route="E_W" depart="576" departLane="random" departSpeed="10" />
    <vehicle id="W_E_197" type="standard_car" route="W_E" depart="578" departLane="random" departSpeed="10" />
    <vehicle id="N_S_2_198" type="standard_car" route="N_S_2" depart="578" departLane="random" departSpeed="10" />
    <vehicle id="E_W_199" type="standard_car" route="E_W" depart="580" departLane="random" departSpeed="10" />
    <vehicle id="N_S_1_200" type="standard_car" route="N_S_1" depart="580" departLane="random" departSpeed="10" />
    <vehicle id="N_S_1_201" type="standard_car" route="N_S_1" depart="585" departLane="random" departSpeed="10" />
    <vehicle id="E_N_202" type="standard_car" route="E_N" depart="588" departLane="random" departSpeed="10" />
    <vehicle id="E_N_203" type="standard_car" route="E_N" depart="589" departLane="random" departSpeed="10" />
    <vehicle id="N_W_204" type="standard_car" route="N_W" depart="590" departLane="random" departSpeed="10" />
    <vehicle id="W_E_205" type="standard_car" route="W_E" depart="591" departLane="random" departSpeed="10" />
    <vehicle id="W_E_206" type="standard_car" route="W_E" depart="592" departLane="random" departSpeed="10" />
    <vehicle id="S_E_207" type="standard_car" route="S_E" depart="592" departLane="random" departSpeed="10" />
    <vehicle id="E_W_208" type="standard_car" route="E_W" depart="593" departLane="random" departSpeed="10" />
    <vehicle id="S_N_1_209" type="standard_car" route="S_N_1" depart="596" departLane="random" departSpeed="10" />
    <vehicle id="S_N_1_210" type="standard_car" route="S_N_1" depart="597" departLane="random" departSpeed="10" />
    <vehicle id="N_S_2_211" type="standard_car" route="N_S_2" depart="597" departLane="random" departSpeed="10" />
    <vehicle id="W_S_212" type="standard_car" route="W_S" depart="598" departLane="random" departSpeed="10" />
    <vehicle id="S_N_1_213" type="standard_car" route="S_N_1" depart="598" departLane="random" departSpeed="10" />
    <vehicle id="S_N_2_214" type="standard_car" route="S_N_2" depart="601" departLane="random" departSpeed="10" />
    <vehicle id="N_S_2_215" type="standard_car" route="N_S_2" depart="601" departLane="random" departSpeed="10" />
    <vehicle id="E_W_216" type="standard_car" route="E_W" depart="602" departLane="random" departSpeed="10" />
    <vehicle id="W_E_217" type="standard_car" route="W_E" depart="602" departLane="random" departSpeed="10" />
    <vehicle id="W_E_218" type="standard_car" route="W_E" depart="605" departLane="random" departSpeed="10" />
    <vehicle id="W_E_219" type="standard_car" route="W_E" depart="605" departLane="random" departSpeed="10" />
    <vehicle id="E_W_220" type="standard_car" route="E_W" depart="605" departLane="random" departSpeed="10" />
    <vehicle id="S_N_1_221" type="standard_car" route="S_N_1" depart="606" departLane="random" departSpeed="10" />
    <vehicle id="S_N_1_222" type="standard_car" route="S_N_1" depart="607" departLane="random" departSpeed="10" />
    <vehicle id="S_N_2_223" type="standard_car" route="S_N_2" depart="608" departLane="random" departSpeed="10" />
    <vehicle id="S_N_2_224" type="standard_car" route="S_N_2" depart="610" departLane="random" departSpeed="10" />
    <vehicle id="S_N_1_225" type="standard_car" route="S_N_1" depart="611" departLane="random" departSpeed="10" />
    <vehicle id="S_N_1_226" type="standard_car" route="S_N_1" depart="613" departLane="random" departSpeed="10" />
    <vehicle id="S_N_2_227" type="standard_car" route="S_N_2" depart="613" departLane="random" departSpeed="10" />
    <vehicle id="N_W_228" type="standard_car" route="N_W" depart="615" departLane="random" departSpeed="10" />
    <vehicle id="S_N_2_229" type="standard_car" route="S_N_2" depart="616" departLane="random" departSpeed="10" />
    <vehicle id="E_N_230" type="standard_car" route="E_N" depart="617" departLane="random" departSpeed="10" />
    <vehicle id="E_W_231" type="standard_car" route="E_W" depart="617" departLane="random" departSpeed="10" />
    <vehicle id="S_N_1_232" type="standard_car" route="S_N_1" depart="620" departLane="random" departSpeed="10" />
    <vehicle id="N_S_1_233" type="standard_car" route="N_S_1" depart="620" departLane="random" departSpeed="10" />
    <vehicle id="N_S_2_234" type="standard_car" route="N_S_2" depart="622" departLane="random" departSpeed="10" />
    <vehicle id="W_E_235" type="standard_car" route="W_E" depart="623" departLane="random" departSpeed="10" />
    <vehicle id="N_S_1_236" type="standard_car" route="N_S_1" depart="623" departLane="random" departSpeed="10" />
    <vehicle id="W_S_237" type="standard_car" route="W_S" depart="624" departLane="random" departSpeed="10" />
    <vehicle id="E_N_238" type="standard_car" route="E_N" depart="624" departLane="random" departSpeed="10" />
    <vehicle id="S_N_1_239" type="standard_car" route="S_N_1" depart="625" departLane="random" departSpeed="10" />
    <vehicle id="E_W_240" type="standard_car" route="E_W" depart="628" departLane="random" departSpeed="10" />
    <vehicle id="W_E_241" type="standard_car" route="W_E" depart="632" departLane="random" departSpeed="10" />
    <vehicle id="E_N_242" type="standard_car" route="E_N" depart="632" departLane="random" departSpeed="10" />
    <vehicle id="S_N_1_243" type="standard_car" route="S_N_1" depart="634" departLane="random" departSpeed="10" />
    <vehicle id="W_S_244" type="standard_car" route="W_S" depart="635" departLane="random" departSpeed="10" />
    <vehicle id="E_W_245" type="standard_car" route="E_W" depart="638" departLane="random" departSpeed="10" />
    <vehicle id="E_W_246" type="standard_car" route="E_W" depart="641" departLane="random" departSpeed="10" />
    <vehicle id="N_S_1_247" type="standard_car" route="N_S_1" depart="643" departLane="random" departSpeed="10" />
    <vehicle id="E_W_248" type="standard_car" route="E_W" depart="644" departLane="random" departSpeed="10" />
    <vehicle id="S_N_2_249" type="standard_car" route="S_N_2" depart="645" departLane="random" departSpeed="10" />
    <vehicle id="E_N_250" type="standard_car" route="E_N" depart="645" departLane="random" departSpeed="10" />
    <vehicle id="N_S_2_251" type="standard_car" route="N_S_2" depart="646" departLane="random" departSpeed="10" />
    <vehicle id="W_E_252" type="standard_car" route="W_E" depart="647" departLane="random" departSpeed="10" />
    <vehicle id="N_S_1_253" type="standard_car" route="N_S_1" depart="647" departLane="random" departSpeed="10" />
    <vehicle id="S_N_2_254" type="standard_car" route="S_N_2" depart="648" departLane="random" departSpeed="10" />
    <vehicle id="N_S_2_255" type="standard_car" route="N_S_2" depart="648" departLane="random" departSpeed="10" />
    <vehicle id="N_S_1_256" type="standard_car" route="N_S_1" depart="652" departLane="random" departSpeed="10" />
    <vehicle id="S_E_257" type="standard_car" route="S_E" depart="653" departLane="random" departSpeed="10" />
    <vehicle id="N_W_258" type="standard_car" route="N_W" depart="660" departLane="random" departSpeed="10" />
    <vehicle id="N_S_2_259" type="standard_car" route="N_S_2" depart="661" departLane="random" departSpeed="10" />