<routes>
            <vType id="emergency" accel="3.0" decel="6.0" color="1,0,0" maxSpeed="20" sigma="0.5" emergency="true" />
            <vType id="standard_car" accel="1.0" decel="4.5" length="5.0" minGap="2.5" maxSpeed="25" sigma="0.5" />
            <route id="E_W" edges="2_E2TL 2_TL2W TL2W" />
            <route id="W_E" edges="W2TL TL2E 2_TL2E" />
            <route id="N_S_1" edges="2_N2TL 2_TL2S" />
            <route id="N_S_2" edges="N2TL TL2S" />
            <route id="S_N_1" edges="S2TL TL2N" />
            <route id="S_N_2" edges="2_S2TL 2_TL2N" />
            <route id="N_W" edges="2_N2TL 2_TL2W" />
            <route id="S_E" edges="S2TL TL2E" />
            <route id="E_N" edges="2_E2TL 2_TL2N" />
            <route id="W_S" edges="W2TL TL2E 2_TL2S" />
    <vehicle id="W_S_0" type="standard_car" route="W_S" depart="20" departLane="random" departSpeed="10" />
    <vehicle id="E_N_1" type="standard_car" route="E_N" depart="76" departLane="random" departSpeed="10" />
    <vehicle id="S_E_2" type="standard_car" route="S_E" depart="83" departLane="random" departSpeed="10" />
    <vehicle id="E_W_3" type="standard_car" route="E_W" depart="86" departLane="random" departSpeed="10" />
    <vehicle id="N_S_2_4" type="standard_car" route="N_S_2" depart="91" departLane="random" departSpeed="10" />
    <vehicle id="N_S_1_5" type="standard_car" route="N_S_1" depart="92" departLane="random" departSpeed="10" />
    <vehicle id="W_E_6" type="standard_car" route="W_E" depart="97" departLane="random" departSpeed="10" />
    <vehicle id="N_W_7" type="standard_car" route="N_W" depart="98" departLane="random" departSpeed="10" />
    <vehicle id="S_N_2_8" type="standard_car" route="S_N_2" depart="103" departLane="random" departSpeed="10" />
    <vehicle id="S_N_1_9" type="standard_car" route="S_N_1" depart="125" departLane="random" departSpeed="10" />
    <vehicle id="N_S_2_10" type="standard_car" route="N_S_2" depart="126" departLane="random" departSpeed="10" />
    <vehicle id="N_S_1_11" type="standard_car" route="N_S_1" depart="130" departLane="random" departSpeed="10" />
    <vehicle id="N_W_12" type="standard_car" route="N_W" depart="131" departLane="random" departSpeed="10" />
    <vehicle id="S_N_2_13" type="standard_car" route="S_N_2" depart="133" departLane="random" departSpeed="10" />
    <vehicle id="S_N_2_14" type="standard_car" route="S_N_2" depart="148" departLane="random" departSpeed="10" />
    <vehicle id="W_S_15" type="standard_car" route="W_S" depart="151" departLane="random" departSpeed="10" />
    <vehicle id="E_W_16" type="standard_car" route="E_W" depart="168" departLane="random" departSpeed="10" />
    <vehicle id="N_W_17" type="standard_car" route="N_W" depart="175" departLane="random" departSpeed="10" />
    <vehicle id="N_S_1_18" type="standard_car" route="N_S_1" depart="177" departLane="random" departSpeed="10" />
    <vehicle id="S_N_2_19" type="standard_car" route="S_N_2" depart="179" departLane="random" departSpeed="10" />
    <vehicle id="S_N_2_20" type="standard_car" route="S_N_2" depart="180" departLane="random" departSpeed="10" />
    <vehicle id="N_S_1_21" type="standard_car" route="N_S_1" depart="181" departLane="random" departSpeed="10" />
    <vehicle id="W_S_22" type="standard_car" route="W_S" depart="192" departLane="random" departSpeed="10" />
    <vehicle id="N_S_1_23" type="standard_car" route="N_S_1" depart="196" departLane="random" departSpeed="10" />
    <vehicle id="N_S_2_24" type="standard_car" route="N_S_2" depart="199" departLane="random" departSpeed="10" />
    <vehicle id="S_N_1_25" type="standard_car" route="S_N_1" depart="212" departLane="random" departSpeed="10" />
    <vehicle id="N_S_1_26" type="standard_car" route="N_S_1" depart="216" departLane="random" departSpeed="10" />
    <vehicle id="S_N_2_27" type="standard_car" route="S_N_2" depart="219" departLane="random" departSpeed="10" />
    <vehicle id="S_N_1_28" type="standard_car" route="S_N_1" depart="220" departLane="random" departSpeed="10" />
    <vehicle id="W_S_29" type="standard_car" route="W_S" depart="221" departLane="random" departSpeed="10" />
    <vehicle id="W_S_30" type="standard_car" route="W_S" depart="226" departLane="random" departSpeed="10" />
    <vehicle id="W_E_31" type="standard_car" route="W_E" depart="228" departLane="random" departSpeed="10" />
    <vehicle id="W_E_32" type="standard_car" route="W_E" depart="235" departLane="random" departSpeed="10" />
    <vehicle id="N_S_1_33" type="standard_car" route="N_S_1" depart="249" departLane="random" departSpeed="10" />
    <vehicle id="N_S_1_34" type="standard_car" route="N_S_1" depart="253" departLane="random" departSpeed="10" />
    <vehicle id="N_S_2_35" type="standard_car" route="N_S_2" depart="261" departLane="random" departSpeed="10" />
    <vehicle id="W_S_36" type="standard_car" route="W_S" depart="267" departLane="random" departSpeed="10" />
    <vehicle id="S_N_1_37" type="standard_car" route="S_N_1" depart="272" departLane="random" departSpeed="10" />
    <vehicle id="E_N_38" type="standard_car" route="E_N" depart="273" departLane="random" departSpeed="10" />
    <vehicle id="W_S_39" type="standard_car" route="W_S" depart="276" departLane="random" departSpeed="10" />
    <vehicle id="S_N_1_40" type="standard_car" route="S_N_1" depart="278" departLane="random" departSpeed="10" />
    <vehicle id="S_E_41" type="standard_car" route="S_E" depart="283" departLane="random" departSpeed="10" />
    <vehicle id="S_E_42" type="standard_car" route="S_E" depart="289" departLane="random" departSpeed="10" />
    <vehicle id="E_N_43" type="standard_car" route="E_N" depart="290" departLane="random" departSpeed="10" />
    <vehicle id="W_S_44" type="standard_car" route="W_S" depart="291" departLane="random" departSpeed="10" />
    <vehicle id="S_N_1_45" type="standard_car" route="S_N_1" depart="293" departLane="random" departSpeed="10" />
    <vehicle id="N_W_46" type="standard_car" route="N_W" depart="298" departLane="random" departSpeed="10" />
    <vehicle id="S_E_47" type="standard_car" route="S_E" depart="305" departLane="random" departSpeed="10" />
    <vehicle id="N_W_48" type="standard_car" route="N_W" depart="305" departLane="random" departSpeed="10" />
    <vehicle id="W_E_49" type="standard_car" route="W_E" depart="306" departLane="random" departSpeed="10" />
    <vehicle id="S_N_2_50" type="standard_car" route="S_N_2" depart="307" departLane="random" departSpeed="10" />
    <vehicle id="E_N_51" type="standard_car" route="E_N" depart="309" departLane="random" departSpeed="10" />
    <vehicle id="N_W_52" type="standard_car" route="N_W" depart="309" departLane="random" departSpeed="10" />
    <vehicle id="S_N_1_53" type="standard_car" route="S_N_1" depart="310" departLane="random" departSpeed="10" />
    <vehicle id="S_N_2_54" type="standard_car" route="S_N_2" depart="314" departLane="random" departSpeed="10" />
    <vehicle id="E_W_55" type="standard_car" route="E_W" depart="317" departLane="random" departSpeed="10" />
    <vehicle id="W_S_56" type="standard_car" route="W_S" depart="317" departLane="random" departSpeed="10" />
    <vehicle id="S_N_2_57" type="standard_car" route="S_N_2" depart="318" departLane="random" departSpeed="10" />
    <vehicle id="S_N_2_58" type="standard_car" route="S_N_2" depart="319" departLane="random" departSpeed="10" />
    <vehicle id="W_E_59" type="standard_car" route="W_E" depart="319" departLane="random" departSpeed="10" />
    <vehicle id="W_E_60" type="standard_car" route="W_E" depart="320" departLane="random" departSpeed="10" />
    <vehicle id="N_S_1_61" type="standard_car" route="N_S_1" depart="326" departLane="random" departSpeed="10" />
    <vehicle id="W_S_62" type="standard_car" route="W_S" depart="333" departLane="random" departSpeed="10" />
    <vehicle id="S_N_1_63" type="standard_car" route="S_N_1" depart="334" departLane="random" departSpeed="10" />
    <vehicle id="S_E_64" type="standard_car" route="S_E" depart="335" departLane="random" departSpeed="10" />
    <vehicle id="W_E_65" type="standard_car" route="W_E" depart="338" departLane="random" departSpeed="10" />
    <vehicle id="N_S_2_66" type="standard_car" route="N_S_2" depart="340" departLane="random" departSpeed="10" />
    <vehicle id="S_N_1_67" type="standard_car" route="S_N_1" depart="341" departLane="random" departSpeed="10" />
    <vehicle id="N_S_1_68" type="standard_car" route="N_S_1" depart="345" departLane="random" departSpeed="10" />
    <vehicle id="N_W_69" type="standard_car" route="N_W" depart="345" departLane="random" departSpeed="10" />
    <vehicle id="W_S_70" type="standard_car" route="W_S" depart="350" departLane="random" departSpeed="10" />
    <vehicle id="E_W_71" type="standard_car" route="E_W" depart="350" departLane="random" departSpeed="10" />
    <vehicle id="W_E_72" type="standard_car" route="W_E" depart="352" departLane="random" departSpeed="10" />
    <vehicle id="W_E_73" type="standard_car" route="W_E" depart="352" departLane="random" departSpeed="10" />
    <vehicle id="N_S_1_74" type="standard_car" route="N_S_1" depart="353" departLane="random" departSpeed="10" />
    <vehicle id="S_N_1_75" type="standard_car" route="S_N_1" depart="368" departLane="random" departSpeed="10" />
    <vehicle id="S_E_76" type="standard_car" route="S_E" depart="368" departLane="random" departSpeed="10" />
    <vehicle id="W_S_77" type="standard_car" route="W_S" depart="371" departLane="random" departSpeed="10" />
    <vehicle id="W_E_78" type="standard_car" route="W_E" depart="372" departLane="random" departSpeed="10" />
    <vehicle id="E_W_79" type="standard_car" route="E_W" depart="373" departLane="random" departSpeed="10" />
    <vehicle id="N_S_2_80" type="standard_car" route="N_S_2" depart="374" departLane="random" departSpeed="10" />
    <vehicle id="S_N_2_81" type="standard_car" route="S_N_2" depart="376" departLane="random" departSpeed="10" />
    <vehicle id="S_E_82" type="standard_car" route="S_E" depart="377" departLane="random" departSpeed="10" />
    <vehicle id="N_S_2_83" type="standard_car" route="N_S_2" depart="378" departLane="random" departSpeed="10" />
    <vehicle id="S_N_1_84" type="standard_car" route="S_N_1" depart="378" departLane="random" departSpeed="10" />
    <vehicle id="S_N_1_85" type="standard_car" route="S_N_1" depart="379" departLane="random" departSpeed="10" />
    <vehicle id="S_N_2_86" type="standard_car" route="S_N_2" depart="379" departLane="random" departSpeed="10" />
    <vehicle id="W_S_87" type="standard_car" route="W_S" depart="380" departLane="random" departSpeed="10" />
    <vehicle id="W_E_88" type="standard_car" route="W_E" depart="390" departLane="random" departSpeed="10" />
    <vehicle id="S_N_2_89" type="standard_car" route="S_N_2" depart="391" departLane="random" departSpeed="10" />
    <vehicle id="S_N_2_90" type="standard_car" route="S_N_2" depart="394" departLane="random" departSpeed="10" />
    <vehicle id="N_S_2_91" type="standard_car" route="N_S_2" depart="396" departLane="random" departSpeed="10" />
    <vehicle id="E_W_92" type="standard_car" route="E_W" depart="397" departLane="random" departSpeed="10" />
    <vehicle id="S_N_2_93" type="standard_car" route="S_N_2" depart="397" departLane="random" departSpeed="10" />
    <vehicle id="S_E_94" type="standard_car" route="S_E" depart="399" departLane="random" departSpeed="10" />
    <vehicle id="N_S_2_95" type="standard_car" route="N_S_2" depart="399" departLane="random" departSpeed="10" />
    <vehicle id="W_E_96" type="standard_car" route="W_E" depart="402" departLane="random" departSpeed="10" />
    <vehicle id="N_S_2_97" type="standard_car" route="N_S_2" depart="418" departLane="random" departSpeed="10" />
    <vehicle id="S_N_1_98" type="standard_car" route="S_N_1" depart="419" departLane="random" departSpeed="10" />
    <vehicle id="N_S_1_99" type="standard_car" route="N_S_1" depart="423" departLane="random" departSpeed="10" />
    <vehicle id="S_N_2_100" type="standard_car" route="S_N_2" depart="424" departLane="random" departSpeed="10" />
    <vehicle id="S_E_101" type="standard_car" route="S_E" depart="427" departLane="random" departSpeed="10" />
    <vehicle id="N_S_2_102" type="standard_car" route="N_S_2" depart="428" departLane="random" departSpeed="10" />
    <vehicle id="E_W_103" type="standard_car" route="E_W" depart="429" departLane="random" departSpeed="10" />
    <vehicle id="N_W_104" type="standard_car" route="N_W" depart="431" departLane="random" departSpeed="10" />
    <vehicle id="S_E_105" type="standard_car" route="S_E" depart="433" departLane="random" departSpeed="10" />
    <vehicle id="N_S_2_106" type="standard_car" route="N_S_2" depart="434" departLane="random" departSpeed="10" />
    <vehicle id="W_S_107" type="standard_car" route="W_S" depart="435" departLane="random" departSpeed="10" />
    <vehicle id="N_S_1_108" type="standard_car" route="N_S_1" depart="436" departLane="random" departSpeed="10" />
    <vehicle id="N_W_109" type="standard_car" route="N_W" depart="437" departLane="random" departSpeed="10" />
    <vehicle id="N_S_1_110" type="standard_car" route="N_S_1" depart="439" departLane="random" departSpeed="10" />
    <vehicle id="E_N_111" type="standard_car" route="E_N" depart="440" departLane="random" departSpeed="10" />
    <vehicle id="S_N_1_112" type="standard_car" route="S_N_1" depart="441" departLane="random" departSpeed="10" />
    <vehicle id="W_S_113" type="standard_car" route="W_S" depart="443" departLane="random" departSpeed="10" />
    <vehicle id="S_N_1_114" type="standard_car" route="S_N_1" depart="445" departLane="random" departSpeed="10" />
    <vehicle id="E_W_115" type="standard_car" route="E_W" depart="446" departLane="random" departSpeed="10" />
    <vehicle id="N_S_2_116" type="standard_car" route="N_S_2" depart="447" departLane="random" departSpeed="10" />
    <vehicle id="W_E_117" type="standard_car" route="W_E" depart="449" departLane="random" departSpeed="10" />
    <vehicle id="E_N_118" type="standard_car" route="E_N" depart="451" departLane="random" departSpeed="10" />
    <vehicle id="S_N_2_119" type="standard_car" route="S_N_2" depart="452" departLane="random" departSpeed="10" />
    <vehicle id="S_E_120" type="standard_car" route="S_E" depart="452" departLane="random" departSpeed="10" />
    <vehicle id="S_N_2_121" type="standard_car" route="S_N_2" depart="455" departLane="random" departSpeed="10" />
    <vehicle id="N_S_1_122" type="standard_car" route="N_S_1" depart="455" departLane="random" departSpeed="10" />
    <vehicle id="N_S_1_123" type="standard_car" route="N_S_1" depart="456" departLane="random" departSpeed="10" />
    <vehicle id="N_S_2_124" type="standard_car" route="N_S_2" depart="457" departLane="random" departSpeed="10" />
    <vehicle id="S_E_125" type="standard_car" route="S_E" depart="462" departLane="random" departSpeed="10" />
    <vehicle id="S_N_2_126" type="standard_car" route="S_N_2" depart="462" departLane="random" departSpeed="10" />
    <vehicle id="S_N_2_127" type="standard_car" route="S_N_2" depart="464" departLane="random" departSpeed="10" />
    <vehicle id="E_W_128" type="standard_car" route="E_W" depart="464" departLane="random" departSpeed="10" />
    <vehicle id="S_E_129" type="standard_car" route="S_E" depart="465" departLane="random" departSpeed="10" />
    <vehicle id="N_S_1_130" type="standard_car" route="N_S_1" depart="466" departLane="random" departSpeed="10" />
    <vehicle id="W_S_131" type="standard_car" route="W_S" depart="467" departLane="random" departSpeed="10" />
    <vehicle id="E_W_132" type="standard_car" route="E_W" depart="469" departLane="random" departSpeed="10" />
    <vehicle id="N_S_1_133" type="standard_car" route="N_S_1" depart="470" departLane="random" departSpeed="10" />
    <vehicle id="E_W_134" type="standard_car" route="E_W" depart="472" departLane="random" departSpeed="10" />
    <vehicle id="N_S_2_135" type="standard_car" route="N_S_2" depart="472" departLane="random" departSpeed="10" />
    <vehicle id="W_S_136" type="standard_car" route="W_S" depart="473" departLane="random" departSpeed="10" />
    <vehicle id="W_S_137" type="standard_car" route="W_S" depart="473" departLane="random" departSpeed="10" />
    <vehicle id="S_N_2_138" type="standard_car" route="S_N_2" depart="473" departLane="random" departSpeed="10" />
    <vehicle id="N_S_1_139" type="standard_car" route="N_S_1" depart="475" departLane="random" departSpeed="10" />
    <vehicle id="N_S_1_140" type="standard_car" route="N_S_1" depart="477" departLane="random" departSpeed="10" />
    <vehicle id="N_S_1_141" type="standard_car" route="N_S_1" depart="477" departLane="random" departSpeed="10" />
    <vehicle id="N_S_1_142" type="standard_car" route="N_S_1" depart="478" departLane="random" departSpeed="10" />
    <vehicle id="N_S_1_143" type="standard_car" route="N_S_1" depart="481" departLane="random" departSpeed="10" />
    <vehicle id="N_S_1_144" type="standard_car" route="N_S_1" depart="481" departLane="random" departSpeed="10" />
    <vehicle id="E_N_145" type="standard_car" route="E_N" depart="483" departLane="random" departSpeed="10" />
    <vehicle id="N_S_2_146" type="standard_car" route="N_S_2" depart="483" departLane="random" departSpeed="10" />
    <vehicle id="E_W_147" type="standard_car" route="E_W" depart="489" departLane="random" departSpeed="10" />
    <vehicle id="N_S_2_148" type="standard_car" route="N_S_2" depart="492" departLane="random" departSpeed="10" />
    <vehicle id="N_S_1_149" type="standard_car" route="N_S_1" depart="493" departLane="random" departSpeed="10" />
    <vehicle id="E_W_150" type="standard_car" route="E_W" depart="494" departLane="random" departSpeed="10" />
    <vehicle id="E_W_151" type="standard_car" route="E_W" depart="495" departLane="random" departSpeed="10" />
    <vehicle id="E_W_152" type="standard_car" route="E_W" depart="497" departLane="random" departSpeed="10" />
    <vehicle id="W_E_153" type="standard_car" route="W_E" depart="498" departLane="random" departSpeed="10" />
    <vehicle id="E_N_154" type="standard_car" route="E_N" depart="502" departLane="random" departSpeed="10" />
    <vehicle id="N_W_155" type="standard_car" route="N_W" depart="503" departLane="random" departSpeed="10" />
    <vehicle id="W_S_156" type="standard_car" route="W_S" depart="504" departLane="random" departSpeed="10" />
    <vehicle id="N_S_2_157" type="standard_car" route="N_S_2" depart="506" departLane="random" departSpeed="10" />
    <vehicle id="W_E_158" type="standard_car" route="W_E" depart="507" departLane="random" departSpeed="10" />
    <vehicle id="S_N_1_159" type="standard_car" route="S_N_1" depart="507" departLane="random" departSpeed="10" />
    <vehicle id="E_W_160" type="standard_car" route="E_W" depart="508" departLane="random" departSpeed="10" />
    <vehicle id="N_W_161" type="standard_car" route="N_W" depart="513" departLane="random" departSpeed="10" />
    <vehicle id="E_W_162" type="standard_car" route="E_W" depart="515" departLane="random" departSpeed="10" />
    <vehicle id="W_E_163" type="standard_car" route="W_E" depart="518" departLane="random" departSpeed="10" />
    <vehicle id="S_N_1_164" type="standard_car" route="S_N_1" depart="521" departLane="random" departSpeed="10" />
    <vehicle id="E_N_165" type="standard_car" route="E_N" depart="522" departLane="random" departSpeed="10" />
    <vehicle id="N_S_1_166" type="standard_car" route="N_S_1" depart="524" departLane="random" departSpeed="10" />
    <vehicle id="E_W_167" type="standard_car" route="E_W" depart="526" departLane="random" departSpeed="10" />
    <vehicle id="E_W_168" type="standard_car" route="E_W" depart="528" departLane="random" departSpeed="10" />
    <vehicle id="S_N_1_169" type="standard_car" route="S_N_1" depart="532" departLane="random" departSpeed="10" />
    <vehicle id="W_E_170" type="standard_car" route="W_E" depart="532" departLane="random" departSpeed="10" />
    <vehicle id="E_W_171" type="standard_car" route="E_W" depart="534" departLane="random" departSpeed="10" />
    <vehicle id="S_N_2_172" type="standard_car" route="S_N_2" depart="537" departLane="random" departSpeed="10" />
    <vehicle id="W_S_173" type="standard_car" route="W_S" depart="539" departLane="random" departSpeed="10" />
    <vehicle id="N_W_174" type="standard_car" route="N_W" depart="540" departLane="random" departSpeed="10" />
    <vehicle id="N_S_2_175" type="standard_car" route="N_S_2" depart="542" departLane="random" departSpeed="10" />
    <vehicle id="E_W_176" type="standard_car" route="E_W" depart="543" departLane="random" departSpeed="10" />
    <vehicle id="N_S_1_177" type="standard_car" route="N_S_1" depart="546" departLane="random" departSpeed="10" />
    <vehicle id="N_S_1_178" type="standard_car" route="N_S_1" depart="547" departLane="random" departSpeed="10" />
    <vehicle id="E_W_179" type="standard_car" route="E_W" depart="547" departLane="random" departSpeed="10" />
    <vehicle id="S_N_1_180" type="standard_car" route="S_N_1" depart="547" departLane="random" departSpeed="10" />
    <vehicle id="S_N_1_181" type="standard_car" route="S_N_1" depart="550" departLane="random" departSpeed="10" />
    <vehicle id="W_E_182" type="standard_car" route="W_E" depart="555" departLane="random" departSpeed="10" />
    <vehicle id="S_N_1_183" type="standard_car" route="S_N_1" depart="556" departLane="random" departSpeed="10" />
    <vehicle id="W_S_184" type="standard_car" route="W_S" depart="556" departLane="random" departSpeed="10" />
    <vehicle id="S_N_1_185" type="standard_car" route="S_N_1" depart="563" departLane="random" departSpeed="10" />
    <vehicle id="W_S_186" type="standard_car" route="W_S" depart="563" departLane="random" departSpeed="10" />
    <vehicle id="E_W_187" type="standard_car" route="E_W" depart="564" departLane="random" departSpeed="10" />
    <vehicle id="E_N_188" type="standard_car" route="E_N" depart="564" departLane="random" departSpeed="10" />
    <vehicle id="S_N_2_189" type="standard_car" route="S_N_2" depart="567" departLane="random" departSpeed="10" />
    <vehicle id="N_S_1_190" type="standard_car" route="N_S_1" depart="569" departLane="random" departSpeed="10" />
    <vehicle id="N_S_1_191" type="standard_car" route="N_S_1" depart="569" departLane="random" departSpeed="10" />
    <vehicle id="S_E_192" type="standard_car" route="S_E" depart="569" departLane="random" departSpeed="10" />
    <vehicle id="N_W_193" type="standard_car" route="N_W" depart="570" departLane="random" departSpeed="10" />
    <vehicle id="N_S_2_194" type="standard_car" route="N_S_2" depart="574" departLane="random" departSpeed="10" />
    <vehicle id="S_N_1_195" type="standard_car" route="S_N_1" depart="577" departLane="random" departSpeed="10" />
    <vehicle id="S_N_2_196" type="standard_car" route="S_N_2" depart="579" departLane="random" departSpeed="10" />
    <vehicle id="W_E_197" type="standard_car" route="W_E" depart="580" departLane="random" departSpeed="10" />
    <vehicle id="W_E_198" type="standard_car" route="W_E" depart="580" departLane="random" departSpeed="10" />
    <vehicle id="S_N_2_199" type="standard_car" route="S_N_2" depart="582" departLane="random" departSpeed="10" />
    <vehicle id="S_N_2_200" type="standard_car" route="S_N_2" depart="583" departLane="random" departSpeed="10" />
    <vehicle id="N_S_1_201" type="standard_car" route="N_S_1" depart="583" departLane="random" departSpeed="10" />
    <vehicle id="N_S_1_202" type="standard_car" route="N_S_1" depart="584" departLane="random" departSpeed="10" />
    <vehicle id="N_S_1_203" type="standard_car" route="N_S_1" depart="584" departLane="random" departSpeed="10" />
    <vehicle id="W_E_204" type="standard_car" route="W_E" depart="584" departLane="random" departSpeed="10" />
    <vehicle id="W_S_205" type="standard_car" route="W_S" depart="588" departLane="random" departSpeed="10" />
    <vehicle id="N_S_1_206" type="standard_car" route="N_S_1" depart="589" departLane="random" departSpeed="10" />
    <vehicle id="N_W_207" type="standard_car" route="N_W" depart="591" departLane="random" departSpeed="10" />
    <vehicle id="N_W_208" type="standard_car" route="N_W" depart="592" departLane="random" departSpeed="10" />
    <vehicle id="N_S_1_209" type="standard_car" route="N_S_1" depart="595" departLane="random" departSpeed="10" />
    <vehicle id="E_N_210" type="standard_car" route="E_N" depart="595" departLane="random" departSpeed="10" />
    <vehicle id="N_S_1_211" type="standard_car" route="N_S_1" depart="596" departLane="random" departSpeed="10" />
    <vehicle id="E_W_212" type="standard_car" route="E_W" depart="597" departLane="random" departSpeed="10" />
    <vehicle id="S_N_2_213" type="standard_car" route="S_N_2" depart="605" departLane="random" departSpeed="10" />
    <vehicle id="W_E_214" type="standard_car" route="W_E" depart="606" departLane="random" departSpeed="10" />
    <vehicle id="W_E_215" type="standard_car" route="W_E" depart="607" departLane="random" departSpeed="10" />
    <vehicle id="N_S_2_216" type="standard_car" route="N_S_2" depart="608" departLane="random" departSpeed="10" />
    <vehicle id="N_S_2_217" type="standard_car" route="N_S_2" depart="608" departLane="random" departSpeed="10" />
    <vehicle id="N_S_1_218" type="standard_car" route="N_S_1" depart="610" departLane="random" departSpeed="10" />
    <vehicle id="E_W_219" type="standard_car" route="E_W" depart="613" departLane="random" departSpeed="10" />
    <vehicle id="N_W_220" type="standard_car" route="N_W" depart="614" departLane="random" departSpeed="10" />
    <vehicle id="N_S_2_221" type="standard_car" route="N_S_2" depart="615" departLane="random" departSpeed="10" />
    <vehicle id="S_N_1_222" type="standard_car" route="S_N_1" depart="615" departLane="random" departSpeed="10" />
    <vehicle id="S_N_1_223" type="standard_car" route="S_N_1" depart="617" departLane="random" departSpeed="10" />
    <vehicle id="E_W_224" type="standard_car" route="E_W" depart="618" departLane="random" departSpeed="10" />
    <vehicle id="N_S_2_225" type="standard_car" route="N_S_2" depart="620" departLane="random" departSpeed="10" />
    <vehicle id="E_W_226" type="standard_car" route="E_W" depart="620" departLane="random" departSpeed="10" />
    <vehicle id="S_N_2_227" type="standard_car" route="S_N_2" depart="622" departLane="random" departSpeed="10" />
    <vehicle id="S_N_2_228" type="standard_car" route="S_N_2" depart="622" departLane="random" departSpeed="10" />
    <vehicle id="S_E_229" type="standard_car" route="S_E" depart="622" departLane="random" departSpeed="10" />
    <vehicle id="E_N_230" type="standard_car" route="E_N" depart="623" departLane="random" departSpeed="10" />
    <vehicle id="E_W_231" type="standard_car" route="E_W" depart="625" departLane="random" departSpeed="10" />
    <vehicle id="S_N_2_232" type="standard_car" route="S_N_2" depart="629" departLane="random" departSpeed="10" />
    <vehicle id="W_S_233" type="standard_car" route="W_S" depart="630" departLane="random" departSpeed="10" />
    <vehicle id="S_N_1_234" type="standard_car" route="S_N_1" depart="630" departLane="random" departSpeed="10" />
    <vehicle id="N_S_1_235" type="standard_car" route="N_S_1" depart="631" departLane="random" departSpeed="10" />
    <vehicle id="N_W_236" type="standard_car" route="N_W" depart="631" departLane="random" departSpeed="10" />
    <vehicle id="S_N_2_237" type="standard_car" route="S_N_2" depart="633" departLane="random" departSpeed="10" />
    <vehicle id="N_S_1_238" type="standard_car" route="N_S_1" depart="635" departLane="random" departSpeed="10" />
    <vehicle id="S_N_2_239" type="standard_car" route="S_N_2" depart="636" departLane="random" departSpeed="10" />
    <vehicle id="E_W_240" type="standard_car" route="E_W" depart="636" departLane="random" departSpeed="10" />
    <vehicle id="N_S_2_241" type="standard_car" route="N_S_2" depart="637" departLane="random" departSpeed="10" />
    <vehicle id="W_E_242" type="standard_car" route="W_E" depart="637" departLane="random" departSpeed="10" />
    <vehicle id="N_S_1_243" type="standard_car" route="N_S_1" depart="638" departLane="random" departSpeed="10" />
    <vehicle id="N_S_2_244" type="standard_car" route="N_S_2" depart="638" departLane="random" departSpeed="10" />
    <vehicle id="W_E_245" type="standard_car" route="W_E" depart="638" departLane="random" departSpeed="10" />
    <vehicle id="E_N_246" type="standard_car" route="E_N" depart="641" departLane="random" departSpeed="10" />
    <vehicle id="S_N_1_247" type="standard_car" route="S_N_1" depart="643" departLane="random" departSpeed="10" />
    <vehicle id="N_W_248" type="standard_car" route="N_W" depart="643" departLane="random" departSpeed="10" />
    <vehicle id="E_N_249" type="standard_car" route="E_N" depart="644" departLane="random" departSpeed="10" />
    <vehicle id="S_N_2_250" type="standard_car" route="S_N_2" depart="644" departLane="random" departSpeed="10" />
    <vehicle id="W_E_251" type="standard_car" route="W_E" depart="647" departLane="random" departSpeed="10" />
    <vehicle id="N_S_1_252" type="standard_car" route="N_S_1" depart="649" departLane="random" departSpeed="10" />
    <vehicle id="E_W_253" type="standard_car" route="E_W" depart="652" departLane="random" departSpeed="10" />
    <vehicle id="S_E_254" type="standard_car" route="S_E" depart="653" departLane="random" departSpeed="10" />
    <vehicle id="N_S_1_255" type="standard_car" route="N_S_1" depart="654" departLane="random" departSpeed="10" />
    <vehicle id="S_N_2_256" type="standard_car" route="S_N_2" depart="657" departLane="random" departSpeed="10" />
    <vehicle id="W_S_257" type="standard_car" route="W_S" depart="658" departLane="random" departSpeed="10" />
    <vehicle id="E_W_258" type="standard_car" route="E_W" depart="663" departLane="random" departSpeed="10" />