<routes>
            <vType id="emergency" accel="3.0" decel="6.0" color="1,0,0" maxSpeed="20" sigma="0.5" emergency="true" />
            <vType id="standard_car" accel="1.0" decel="4.5" length="5.0" minGap="2.5" maxSpeed="25" sigma="0.5" />
            <route id="E_W" edges="2_E2TL 2_TL2W TL2W" />
            <route id="W_E" edges="W2TL TL2E 2_TL2E" />
            <route id="N_S_1" edges="2_N2TL 2_TL2S" />
            <route id="N_S_2" edges="N2TL TL2S" />
            <route id="S_N_1" edges="S2TL TL2N" />
            <route id="S_N_2" edges="2_S2TL 2_TL2N" />
            <route id="N_W" edges="2_N2TL 2_TL2W" />
            <route id="S_E" edges="S2TL TL2E" />
            <route id="E_N" edges="2_E2TL 2_TL2N" />
            <route id="W_S" edges="W2TL TL2E 2_TL2S" />
    <vehicle id="E_N_0" type="standard_car" route="E_N" depart="46" departLane="random" departSpeed="10" />
    <vehicle id="N_W_1" type="standard_car" route="N_W" depart="73" departLane="random" departSpeed="10" />
    <vehicle id="W_S_2" type="standard_car" route="W_S" depart="78" departLane="random" departSpeed="10" />
    <vehicle id="N_S_1_3" type="standard_car" route="N_S_1" depart="81" departLane="random" departSpeed="10" />
    <vehicle id="S_E_4" type="standard_car" route="S_E" depart="107" departLane="random" departSpeed="10" />
    <vehicle id="S_N_1_5" type="standard_car" route="S_N_1" depart="109" departLane="random" departSpeed="10" />
    <vehicle id="S_N_2_6" type="standard_car" route="S_N_2" depart="112" departLane="random" departSpeed="10" />
    <vehicle id="N_S_2_7" type="standard_car" route="N_S_2" depart="112" departLane="random" departSpeed="10" />
    <vehicle id="E_W_8" type="standard_car" route="E_W" depart="123" departLane="random" departSpeed="10" />
    <vehicle id="W_E_9" type="standard_car" route="W_E" depart="124" departLane="random" departSpeed="10" />
    <vehicle id="S_N_2_10" type="standard_car" route="S_N_2" depart="130" departLane="random" departSpeed="10" />
    <vehicle id="N_S_1_11" type="standard_car" route="N_S_1" depart="141" departLane="random" departSpeed="10" />
    <vehicle id="S_E_12" type="standard_car" route="S_E" depart="144" departLane="random" departSpeed="10" />
    <vehicle id="S_E_13" type="standard_car" route="S_E" depart="146" departLane="random" departSpeed="10" />
    <vehicle id="N_S_1_14" type="standard_car" route="N_S_1" depart="158" departLane="random" departSpeed="10" />
    <vehicle id="E_W_15" type="standard_car" route="E_W" depart="162" departLane="random" departSpeed="10" />
    <vehicle id="N_S_1_16" type="standard_car" route="N_S_1" depart="162" departLane="random" departSpeed="10" />
    <vehicle id="W_E_17" type="standard_car" route="W_E" depart="169" departLane="random" departSpeed="10" />
    <vehicle id="N_S_1_18" type="standard_car" route="N_S_1" depart="170" departLane="random" departSpeed="10" />
    <vehicle id="N_S_2_19" type="standard_car" route="N_S_2" depart="176" departLane="random" departSpeed="10" />
    <vehicle id="E_W_20" type="standard_car" route="E_W" depart="177" departLane="random" departSpeed="10" />
    <vehicle id="E_W_21" type="standard_car" route="E_W" depart="184" departLane="random" departSpeed="10" />
    <vehicle id="S_N_2_22" type="standard_car" route="S_N_2" depart="186" departLane="random" departSpeed="10" />
    <vehicle id="N_S_2_23" type="standard_car" route="N_S_2" depart="188" departLane="random" departSpeed="10" />
    <vehicle id="E_N_24" type="standard_car" route="E_N" depart="191" departLane="random" departSpeed="10" />
    <vehicle id="S_E_25" type="standard_car" route="S_E" depart="193" departLane="random" departSpeed="10" />
    <vehicle id="W_S_26" type="standard_car" route="W_S" depart="198" departLane="random" departSpeed="10" />
    <vehicle id="E_W_27" type="standard_car" route="E_W" depart="198" departLane="random" departSpeed="10" />
    <vehicle id="S_E_28" type="standard_car" route="S_E" depart="202" departLane="random" departSpeed="10" />
    <vehicle id="E_W_29" type="standard_car" route="E_W" depart="210" departLane="random" departSpeed="10" />
    <vehicle id="S_E_30" type="standard_car" route="S_E" depart="215" departLane="random" departSpeed="10" />
    <vehicle id="S_N_1_31" type="standard_car" route="S_N_1" depart="215" departLane="random" departSpeed="10" />
    <vehicle id="N_W_32" type="standard_car" route="N_W" depart="221" departLane="random" departSpeed="10" />
    <vehicle id="N_S_2_33" type="standard_car" route="N_S_2" depart="221" departLane="random" departSpeed="10" />
    <vehicle id="S_N_1_34" type="standard_car" route="S_N_1" depart="222" departLane="random" departSpeed="10" />
    <vehicle id="N_S_1_35" type="standard_car" route="N_S_1" depart="226" departLane="random" departSpeed="10" />
    <vehicle id="E_W_36" type="standard_car" route="E_W" depart="236" departLane="random" departSpeed="10" />
    <vehicle id="N_S_2_37" type="standard_car" route="N_S_2" depart="239" departLane="random" departSpeed="10" />
    <vehicle id="E_W_38" type="standard_car" route="E_W" depart="245" departLane="random" departSpeed="10" />
    <vehicle id="N_S_2_39" type="standard_car" route="N_S_2" depart="254" departLane="random" departSpeed="10" />
    <vehicle id="S_E_40" type="standard_car" route="S_E" depart="276" departLane="random" departSpeed="10" />
    <vehicle id="N_S_1_41" type="standard_car" route="N_S_1" depart="284" departLane="random" departSpeed="10" />
    <vehicle id="W_E_42" type="standard_car" route="W_E" depart="284" departLane="random" departSpeed="10" />
    <vehicle id="S_N_1_43" type="standard_car" route="S_N_1" depart="285" departLane="random" departSpeed="10" />
    <vehicle id="E_N_44" type="standard_car" route="E_N" depart="294" departLane="random" departSpeed="10" />
    <vehicle id="E_W_45" type="standard_car" route="E_W" depart="297" departLane="random" departSpeed="10" />
    <vehicle id="E_N_46" type="standard_car" route="E_N" depart="298" departLane="random" departSpeed="10" />
    <vehicle id="N_S_1_47" type="standard_car" route="N_S_1" depart="300" departLane="random" departSpeed="10" />
    <vehicle id="emergency_0" type="emergency" route="N_S_1" depart="304" departLane="random" departSpeed="10" />
    <vehicle id="S_N_1_48" type="standard_car" route="S_N_1" depart="305" departLane="random" departSpeed="10" />
    <vehicle id="W_E_49" type="standard_car" route="W_E" depart="308" departLane="random" departSpeed="10" />
    <vehicle id="W_E_50" type="standard_car" route="W_E" depart="310" departLane="random" departSpeed="10" />
    <vehicle id="E_W_51" type="standard_car" route="E_W" depart="311" departLane="random" departSpeed="10" />
    <vehicle id="E_W_52" type="standard_car" route="E_W" depart="315" departLane="random" departSpeed="10" />
    <vehicle id="S_N_2_53" type="standard_car" route="S_N_2" depart="321" departLane="random" departSpeed="10" />
    <vehicle id="N_W_54" type="standard_car" route="N_W" depart="321" departLane="random" departSpeed="10" />
    <vehicle id="W_S_55" type="standard_car" route="W_S" depart="322" departLane="random" departSpeed="10" />
    <vehicle id="S_E_56" type="standard_car" route="S_E" depart="324" departLane="random" departSpeed="10" />
    <vehicle id="E_W_57" type="standard_car" route="E_W" depart="330" departLane="random" departSpeed="10" />
    <vehicle id="S_N_1_58" type="standard_car" route="S_N_1" depart="330" departLane="random" departSpeed="10" />
    <vehicle id="S_E_59" type="standard_car" route="S_E" depart="332" departLane="random" departSpeed="10" />
    <vehicle id="emergency_1" type="emergency" route="E_W" depart="334" departLane="random" departSpeed="10" />
    <vehicle id="N_S_2_60" type="standard_car" route="N_S_2" depart="335" departLane="random" departSpeed="10" />
    <vehicle id="W_E_61" type="standard_car" route="W_E" depart="337" departLane="random" departSpeed="10" />
    <vehicle id="N_S_1_62" type="standard_car" route="N_S_1" depart="339" departLane="random" departSpeed="10" />
    <vehicle id="S_E_63" type="standard_car" route="S_E" depart="339" departLane="random" departSpeed="10" />
    <vehicle id="W_E_64" type="standard_car" route="W_E" depart="342" departLane="random" departSpeed="10" />
    <vehicle id="W_S_65" type="standard_car" route="W_S" depart="342" departLane="random" departSpeed="10" />
    <vehicle id="W_E_66" type="standard_car" route="W_E" depart="346" departLane="random" departSpeed="10" />
    <vehicle id="E_N_67" type="standard_car" route="E_N" depart="354" departLane="random" departSpeed="10" />
    <vehicle id="N_S_1_68" type="standard_car" route="N_S_1" depart="354" departLane="random" departSpeed="10" />
    <vehicle id="W_E_69" type="standard_car" route="W_E" depart="359" departLane="random" departSpeed="10" />
    <vehicle id="E_W_70" type="standard_car" route="E_W" depart="361" departLane="random" departSpeed="10" />
    <vehicle id="S_N_2_71" type="standard_car" route="S_N_2" depart="365" departLane="random" departSpeed="10" />
    <vehicle id="E_W_72" type="standard_car" route="E_W" depart="365" departLane="random" departSpeed="10" />
    <vehicle id="N_S_1_73" type="standard_car" route="N_S_1" depart="368" departLane="random" departSpeed="10" />
    <vehicle id="N_W_74" type="standard_car" route="N_W" depart="369" departLane="random" departSpeed="10" />
    <vehicle id="S_N_2_75" type="standard_car" route="S_N_2" depart="371" departLane="random" departSpeed="10" />
    <vehicle id="N_S_1_76" type="standard_car" route="N_S_1" depart="375" departLane="random" departSpeed="10" />
    <vehicle id="N_S_2_77" type="standard_car" route="N_S_2" depart="377" departLane="random" departSpeed="10" />
    <vehicle id="W_S_78" type="standard_car" route="W_S" depart="377" departLane="random" departSpeed="10" />
    <vehicle id="S_N_2_79" type="standard_car" route="S_N_2" depart="377" departLane="random" departSpeed="10" />
    <vehicle id="S_N_2_80" type="standard_car" route="S_N_2" depart="378" departLane="random" departSpeed="10" />
    <vehicle id="N_S_2_81" type="standard_car" route="N_S_2" depart="380" departLane="random" departSpeed="10" />
    <vehicle id="S_N_1_82" type="standard_car" route="S_N_1" depart="383" departLane="random" departSpeed="10" />
    <vehicle id="N_S_1_83" type="standard_car" route="N_S_1" depart="383" departLane="random" departSpeed="10" />
    <vehicle id="E_W_84" type="standard_car" route="E_W" depart="384" departLane="random" departSpeed="10" />
    <vehicle id="S_N_2_85" type="standard_car" route="S_N_2" depart="388" departLane="random" departSpeed="10" />
    <vehicle id="N_S_2_86" type="standard_car" route="N_S_2" depart="389" departLane="random" departSpeed="10" />
    <vehicle id="W_E_87" type="standard_car" route="W_E" depart="390" departLane="random" departSpeed="10" />
    <vehicle id="S_N_1_88" type="standard_car" route="S_N_1" depart="396" departLane="random" departSpeed="10" />
    <vehicle id="N_S_1_89" type="standard_car" route="N_S_1" depart="403" departLane="random" departSpeed="10" />
    <vehicle id="N_S_1_90" type="standard_car" route="N_S_1" depart="404" departLane="random" departSpeed="10" />
    <vehicle id="E_W_91" type="standard_car" route="E_W" depart="405" departLane="random" departSpeed="10" />
    <vehicle id="S_E_92" type="standard_car" route="S_E" depart="406" departLane="random" departSpeed="10" />
    <vehicle id="N_S_2_93" type="standard_car" route="N_S_2" depart="409" departLane="random" departSpeed="10" />
    <vehicle id="W_E_94" type="standard_car" route="W_E" depart="412" departLane="random" departSpeed="10" />
    <vehicle id="N_W_95" type="standard_car" route="N_W" depart="413" departLane="random" departSpeed="10" />
    <vehicle id="W_S_96" type="standard_car" route="W_S" depart="414" departLane="random" departSpeed="10" />
    <vehicle id="E_W_97" type="standard_car" route="E_W" depart="415" departLane="random" departSpeed="10" />
    <vehicle id="N_W_98" type="standard_car" route="N_W" depart="415" departLane="random" departSpeed="10" />
    <vehicle id="E_W_99" type="standard_car" route="E_W" depart="418" departLane="random" departSpeed="10" />
    <vehicle id="N_S_1_100" type="standard_car" route="N_S_1" depart="424" departLane="random" departSpeed="10" />
    <vehicle id="S_N_1_101" type="standard_car" route="S_N_1" depart="434" departLane="random" departSpeed="10" />
    <vehicle id="S_N_2_102" type="standard_car" route="S_N_2" depart="435" departLane="random" departSpeed="10" />
    <vehicle id="S_N_1_103" type="standard_car" route="S_N_1" depart="435" departLane="random" departSpeed="10" />
    <vehicle id="S_N_1_104" type="standard_car" route="S_N_1" depart="437" departLane="random" departSpeed="10" />
    <vehicle id="N_S_2_105" type="standard_car" route="N_S_2" depart="439" departLane="random" departSpeed="10" />
    <vehicle id="N_W_106" type="standard_car" route="N_W" depart="441" departLane="random" departSpeed="10" />
    <vehicle id="S_E_107" type="standard_car" route="S_E" depart="442" departLane="random" departSpeed="10" />
    <vehicle id="W_S_108" type="standard_car" route="W_S" depart="447" departLane="random" departSpeed="10" />
    <vehicle id="W_E_109" type="standard_car" route="W_E" depart="450" departLane="random" departSpeed="10" />
    <vehicle id="E_W_110" type="standard_car" route="E_W" depart="453" departLane="random" departSpeed="10" />
    <vehicle id="S_N_2_111" type="standard_car" route="S_N_2" depart="456" departLane="random" departSpeed="10" />
    <vehicle id="S_N_1_112" type="standard_car" route="S_N_1" depart="460" departLane="random" departSpeed="10" />
    <vehicle id="N_S_2_113" type="standard_car" route="N_S_2" depart="460" departLane="random" departSpeed="10" />
    <vehicle id="E_W_114" type="standard_car" route="E_W" depart="461" departLane="random" departSpeed="10" />
    <vehicle id="S_N_1_115" type="standard_car" route="S_N_1" depart="461" departLane="random" departSpeed="10" />
    <vehicle id="W_S_116" type="standard_car" route="W_S" depart="464" departLane="random" departSpeed="10" />
    <vehicle id="N_S_1_117" type="standard_car" route="N_S_1" depart="466" departLane="random" departSpeed="10" />
    <vehicle id="N_S_1_118" type="standard_car" route="N_S_1" depart="466" departLane="random" departSpeed="10" />
    <vehicle id="W_S_119" type="standard_car" route="W_S" depart="474" departLane="random" departSpeed="10" />
    <vehicle id="E_W_120" type="standard_car" route="E_W" depart="474" departLane="random" departSpeed="10" />
    <vehicle id="N_W_121" type="standard_car" route="N_W" depart="475" departLane="random" departSpeed="10" />
    <vehicle id="N_S_2_122" type="standard_car" route="N_S_2" depart="476" departLane="random" departSpeed="10" />
    <vehicle id="W_S_123" type="standard_car" route="W_S" depart="477" departLane="random" departSpeed="10" />
    <vehicle id="S_N_2_124" type="standard_car" route="S_N_2" depart="478" departLane="random" departSpeed="10" />
    <vehicle id="N_W_125" type="standard_car" route="N_W" depart="479" departLane="random" departSpeed="10" />
    <vehicle id="S_N_1_126" type="standard_car" route="S_N_1" depart="481" departLane="random" departSpeed="10" />
    <vehicle id="W_E_127" type="standard_car" route="W_E" depart="485" departLane="random" departSpeed="10" />
    <vehicle id="E_W_128" type="standard_car" route="E_W" depart="486" departLane="random" departSpeed="10" />
    <vehicle id="S_N_2_129" type="standard_car" route="S_N_2" depart="487" departLane="random" departSpeed="10" />
    <vehicle id="S_E_130" type="standard_car" route="S_E" depart="489" departLane="random" departSpeed="10" />
    <vehicle id="N_W_131" type="standard_car" route="N_W" depart="493" departLane="random" departSpeed="10" />
    <vehicle id="W_E_132" type="standard_car" route="W_E" depart="493" departLane="random" departSpeed="10" />
    <vehicle id="W_S_133" type="standard_car" route="W_S" depart="498" departLane="random" departSpeed="10" />
    <vehicle id="N_S_2_134" type="standard_car" route="N_S_2" depart="499" departLane="random" departSpeed="10" />
    <vehicle id="N_S_2_135" type="standard_car" route="N_S_2" depart="504" departLane="random" departSpeed="10" />
    <vehicle id="S_N_2_136" type="standard_car" route="S_N_2" depart="508" departLane="random" departSpeed="10" />
    <vehicle id="E_N_137" type="standard_car" route="E_N" depart="512" departLane="random" departSpeed="10" />
    <vehicle id="N_S_1_138" type="standard_car" route="N_S_1" depart="515" departLane="random" departSpeed="10" />
    <vehicle id="S_N_2_139" type="standard_car" route="S_N_2" depart="516" departLane="random" departSpeed="10" />
    <vehicle id="N_S_2_140" type="standard_car" route="N_S_2" depart="519" departLane="random" departSpeed="10" />
    <vehicle id="E_N_141" type="standard_car" route="E_N" depart="522" departLane="random" departSpeed="10" />
    <vehicle id="S_N_1_142" type="standard_car" route="S_N_1" depart="524" departLane="random" departSpeed="10" />
    <vehicle id="N_S_1_143" type="standard_car" route="N_S_1" depart="524" departLane="random" departSpeed="10" />
    <vehicle id="S_N_1_144" type="standard_car" route="S_N_1" depart="526" departLane="random" departSpeed="10" />
    <vehicle id="E_W_145" type="standard_car" route="E_W" depart="526" departLane="random" departSpeed="10" />
    <vehicle id="S_E_146" type="standard_car" route="S_E" depart="527" departLane="random" departSpeed="10" />
    <vehicle id="W_E_147" type="standard_car" route="W_E" depart="527" departLane="random" departSpeed="10" />
    <vehicle id="E_N_148" type="standard_car" route="E_N" depart="527" departLane="random" departSpeed="10" />
    <vehicle id="S_E_149" type="standard_car" route="S_E" depart="529" departLane="random" departSpeed="10" />
    <vehicle id="S_E_150" type="standard_car" route="S_E" depart="529" departLane="random" departSpeed="10" />
    <vehicle id="S_N_2_151" type="standard_car" route="S_N_2" depart="530" departLane="random" departSpeed="10" />
    <vehicle id="W_E_152" type="standard_car" route="W_E" depart="531" departLane="random" departSpeed="10" />
    <vehicle id="E_N_153" type="standard_car" route="E_N" depart="531" departLane="random" departSpeed="10" />
    <vehicle id="N_S_1_154" type="standard_car" route="N_S_1" depart="532" departLane="random" departSpeed="10" />
    <vehicle id="S_N_1_155" type="standard_car" route="S_N_1" depart="532" departLane="random" departSpeed="10" />
    <vehicle id="N_S_2_156" type="standard_car" route="N_S_2" depart="533" departLane="random" departSpeed="10" />
    <vehicle id="S_N_1_157" type="standard_car" route="S_N_1" depart="535" departLane="random" departSpeed="10" />
    <vehicle id="E_W_158" type="standard_car" route="E_W" depart="536" departLane="random" departSpeed="10" />
    <vehicle id="S_N_2_159" type="standard_car" route="S_N_2" depart="541" departLane="random" departSpeed="10" />
    <vehicle id="N_S_2_160" type="standard_car" route="N_S_2" depart="542" departLane="random" departSpeed="10" />
    <vehicle id="E_W_161" type="standard_car" route="E_W" depart="543" departLane="random" departSpeed="10" />
    <vehicle id="E_W_162" type="standard_car" route="E_W" depart="543" departLane="random" departSpeed="10" />
    <vehicle id="W_E_163" type="standard_car" route="W_E" depart="546" departLane="random" departSpeed="10" />
    <vehicle id="W_E_164" type="standard_car" route="W_E" depart="548" departLane="random" departSpeed="10" />
    <vehicle id="N_S_1_165" type="standard_car" route="N_S_1" depart="550" departLane="random" departSpeed="10" />
    <vehicle id="E_W_166" type="standard_car" route="E_W" depart="551" departLane="random" departSpeed="10" />
    <vehicle id="N_W_167" type="standard_car" route="N_W" depart="552" departLane="random" departSpeed="10" />
    <vehicle id="N_W_168" type="standard_car" route="N_W" depart="554" departLane="random" departSpeed="10" />
    <vehicle id="W_E_169" type="standard_car" route="W_E" depart="555" departLane="random" departSpeed="10" />
    <vehicle id="N_S_1_170" type="standard_car" route="N_S_1" depart="555" departLane="random" departSpeed="10" />
    <vehicle id="S_E_171" type="standard_car" route="S_E" depart="556" departLane="random" departSpeed="10" />
    <vehicle id="S_N_2_172" type="standard_car" route="S_N_2" depart="556" departLane="random" departSpeed="10" />
    <vehicle id="N_S_1_173" type="standard_car" route="N_S_1" depart="557" departLane="random" departSpeed="10" />
    <vehicle id="W_E_174" type="standard_car" route="W_E" depart="557" departLane="random" departSpeed="10" />
    <vehicle id="E_W_175" type="standard_car" route="E_W" depart="558" departLane="random" departSpeed="10" />
    <vehicle id="E_W_176" type="standard_car" route="E_W" depart="558" departLane="random" departSpeed="10" />
    <vehicle id="N_S_1_177" type="standard_car" route="N_S_1" depart="559" departLane="random" departSpeed="10" />
    <vehicle id="E_W_178" type="standard_car" route="E_W" depart="559" departLane="random" departSpeed="10" />
    <vehicle id="S_N_2_179" type="standard_car" route="S_N_2" depart="561" departLane="random" departSpeed="10" />
    <vehicle id="N_S_1_180" type="standard_car" route="N_S_1" depart="561" departLane="random" departSpeed="10" />
    <vehicle id="E_N_181" type="standard_car" route="E_N" depart="563" departLane="random" departSpeed="10" />
    <vehicle id="S_N_1_182" type="standard_car" route="S_N_1" depart="564" departLane="random" departSpeed="10" />
    <vehicle id="N_S_2_183" type="standard_car" route="N_S_2" depart="565" departLane="random" departSpeed="10" />
    <vehicle id="S_E_184" type="standard_car" route="S_E" depart="571" departLane="random" departSpeed="10" />
    <vehicle id="N_W_185" type="standard_car" route="N_W" depart="571" departLane="random" departSpeed="10" />
    <vehicle id="S_N_1_186" type="standard_car" route="S_N_1" depart="575" departLane="random" departSpeed="10" />
    <vehicle id="W_E_187" type="standard_car" route="W_E" depart="575" departLane="random" departSpeed="10" />
    <vehicle id="S_E_188" type="standard_car" route="S_E" depart="575" departLane="random" departSpeed="10" />
    <vehicle id="N_S_2_189" type="standard_car" route="N_S_2" depart="577" departLane="random" departSpeed="10" />
    <vehicle id="N_S_2_190" type="standard_car" route="N_S_2" depart="579" departLane="random" departSpeed="10" />
    <vehicle id="N_W_191" type="standard_car" route="N_W" depart="579" departLane="random" departSpeed="10" />
    <vehicle id="N_S_2_192" type="standard_car" route="N_S_2" depart="583" departLane="random" departSpeed="10" />
    <vehicle id="S_N_1_193" type="standard_car" route="S_N_1" depart="586" departLane="random" departSpeed="10" />
    <vehicle id="W_E_194" type="standard_car" route="W_E" depart="586" departLane="random" departSpeed="10" />
    <vehicle id="N_S_2_195" type="standard_car" route="N_S_2" depart="588" departLane="random" departSpeed="10" />
    <vehicle id="W_E_196" type="standard_car" route="W_E" depart="588" departLane="random" departSpeed="10" />
    <vehicle id="N_S_1_197" type="standard_car" route="N_S_1" depart="588" departLane="random" departSpeed="10" />
    <vehicle id="S_N_2_198" type="standard_car" route="S_N_2" depart="588" departLane="random" departSpeed="10" />
    <vehicle id="W_S_199" type="standard_car" route="W_S" depart="590" departLane="random" departSpeed="10" />
    <vehicle id="S_N_2_200" type="standard_car" route="S_N_2" depart="592" departLane="random" departSpeed="10" />
    <vehicle id="N_W_201" type="standard_car" route="N_W" depart="593" departLane="random" departSpeed="10" />
    <vehicle id="W_E_202" type="standard_car" route="W_E" depart="594" departLane="random" departSpeed="10" />
    <vehicle id="N_S_2_203" type="standard_car" route="N_S_2" depart="597" departLane="random" departSpeed="10" />
    <vehicle id="E_N_204" type="standard_car" route="E_N" depart="598" departLane="random" departSpeed="10" />
    <vehicle id="S_N_2_205" type="standard_car" route="S_N_2" depart="600" departLane="random" departSpeed="10" />
    <vehicle id="S_N_2_206" type="standard_car" route="S_N_2" depart="600" departLane="random" departSpeed="10" />
    <vehicle id="N_S_1_207" type="standard_car" route="N_S_1" depart="600" departLane="random" departSpeed="10" />
    <vehicle id="S_E_208" type="standard_car" route="S_E" depart="600" departLane="random" departSpeed="10" />
    <vehicle id="N_S_2_209" type="standard_car" route="N_S_2" depart="604" departLane="random" departSpeed="10" />
    <vehicle id="N_S_2_210" type="standard_car" route="N_S_2" depart="604" departLane="random" departSpeed="10" />
    <vehicle id="S_E_211" type="standard_car" route="S_E" depart="606" departLane="random" departSpeed="10" />
    <vehicle id="E_N_212" type="standard_car" route="E_N" depart="606" departLane="random" departSpeed="10" />
    <vehicle id="E_N_213" type="standard_car" route="E_N" depart="607" departLane="random" departSpeed="10" />
    <vehicle id="N_S_1_214" type="standard_car" route="N_S_1" depart="609" departLane="random" departSpeed="10" />
    <vehicle id="E_W_215" type="standard_car" route="E_W" depart="611" departLane="random" departSpeed="10" />
    <vehicle id="S_N_2_216" type="standard_car" route="S_N_2" depart="612" departLane="random" departSpeed="10" />
    <vehicle id="N_S_2_217" type="standard_car" route="N_S_2" depart="613" departLane="random" departSpeed="10" />
    <vehicle id="S_N_1_218" type="standard_car" route="S_N_1" depart="614" departLane="random" departSpeed="10" />
    <vehicle id="S_N_1_219" type="standard_car" route="S_N_1" depart="615" departLane="random" departSpeed="10" />
    <vehicle id="N_S_2_220" type="standard_car" route="N_S_2" depart="616" departLane="random" departSpeed="10" />
    <vehicle id="E_N_221" type="standard_car" route="E_N" depart="619" departLane="random" departSpeed="10" />
    <vehicle id="N_W_222" type="standard_car" route="N_W" depart="620" departLane="random" departSpeed="10" />
    <vehicle id="E_N_223" type="standard_car" route="E_N" depart="621" departLane="random" departSpeed="10" />
    <vehicle id="S_E_224" type="standard_car" route="S_E" depart="622" departLane="random" departSpeed="10" />
    <vehicle id="S_N_1_225" type="standard_car" route="S_N_1" depart="622" departLane="random" departSpeed="10" />
    <vehicle id="S_N_2_226" type="standard_car" route="S_N_2" depart="623" departLane="random" departSpeed="10" />
    <vehicle id="S_N_1_227" type="standard_car" route="S_N_1" depart="625" departLane="random" departSpeed="10" />
    <vehicle id="E_N_228" type="standard_car" route="E_N" depart="625" departLane="random" departSpeed="10" />
    <vehicle id="S_N_1_229" type="standard_car" route="S_N_1" depart="625" departLane="random" departSpeed="10" />
    <vehicle id="E_W_230" type="standard_car" route="E_W" depart="627" departLane="random" departSpeed="10" />
    <vehicle id="S_N_2_231" type="standard_car" route="S_N_2" depart="628" departLane="random" departSpeed="10" />
    <vehicle id="E_N_232" type="standard_car" route="E_N" depart="630" departLane="random" departSpeed="10" />
    <vehicle id="S_E_233" type="standard_car" route="S_E" depart="631" departLane="random" departSpeed="10" />
    <vehicle id="S_N_2_234" type="standard_car" route="S_N_2" depart="634" departLane="random" departSpeed="10" />
    <vehicle id="S_N_1_235" type="standard_car" route="S_N_1" depart="634" departLane="random" departSpeed="10" />
    <vehicle id="N_S_1_236" type="standard_car" route="N_S_1" depart="636" departLane="random" departSpeed="10" />
    <vehicle id="N_S_1_237" type="standard_car" route="N_S_1" depart="636" departLane="random" departSpeed="10" />
    <vehicle id="W_S_238" type="standard_car" route="W_S" depart="637" departLane="random" departSpeed="10" />
    <vehicle id="W_E_239" type="standard_car" route="W_E" depart="639" departLane="random" departSpeed="10" />
    <vehicle id="W_E_240" type="standard_car" route="W_E" depart="641" departLane="random" departSpeed="10" />
    <vehicle id="E_N_241" type="standard_car" route="E_N" depart="641" departLane="random" departSpeed="10" />
    <vehicle id="N_S_1_242" type="standard_car" route="N_S_1" depart="642" departLane="random" departSpeed="10" />
    <vehicle id="N_S_1_243" type="standard_car" route="N_S_1" depart="646" departLane="random" departSpeed="10" />
    <vehicle id="N_S_1_244" type="standard_car" route="N_S_1" depart="646" departLane="random" departSpeed="10" />
    <vehicle id="N_S_1_245" type="standard_car" route="N_S_1" depart="646" departLane="random" departSpeed="10" />
    <vehicle id="S_N_2_246" type="standard_car" route="S_N_2" depart="646" departLane="random" departSpeed="10" />
    <vehicle id="N_S_1_247" type="standard_car" route="N_S_1" depart="647" departLane="random" departSpeed="10" />
    <vehicle id="N_S_1_248" type="standard_car" route="N_S_1" depart="647" departLane="random" departSpeed="10" />
    <vehicle id="S_E_249" type="standard_car" route="S_E" depart="648" departLane="random" departSpeed="10" />
    <vehicle id="N_W_250" type="standard_car" route="N_W" depart="650" departLane="random" departSpeed="10" />
    <vehicle id="W_S_251" type="standard_car" route="W_S" depart="650" departLane="random" departSpeed="10" />
    <vehicle id="N_S_1_252" type="standard_car" route="N_S_1" depart="653" departLane="random" departSpeed="10" />
    <vehicle id="W_E_253" type="standard_car" route="W_E" depart="654" departLane="random" departSpeed="10" />
    <vehicle id="S_N_2_254" type="standard_car" route="S_N_2" depart="657" departLane="random" departSpeed="10" />
    <vehicle id="W_E_255" type="standard_car" route="W_E" depart="660" departLane="random" departSpeed="10" />
    <vehicle id="N_W_256" type="standard_car" route="N_W" depart="661" departLane="random" departSpeed="10" />