<routes>
            <vType id="emergency" accel="3.0" decel="6.0" color="1,0,0" maxSpeed="20" sigma="0.5" emergency="true" />
            <vType id="standard_car" accel="1.0" decel="4.5" length="5.0" minGap="2.5" maxSpeed="25" sigma="0.5" />
            <route id="E_W" edges="2_E2TL 2_TL2W TL2W" />
            <route id="W_E" edges="W2TL TL2E 2_TL2E" />
            <route id="N_S_1" edges="2_N2TL 2_TL2S" />
            <route id="N_S_2" edges="N2TL TL2S" />
            <route id="S_N_1" edges="S2TL TL2N" />
            <route id="S_N_2" edges="2_S2TL 2_TL2N" />
            <route id="N_W" edges="2_N2TL 2_TL2W" />
            <route id="S_E" edges="S2TL TL2E" />
            <route id="E_N" edges="2_E2TL 2_TL2N" />
            <route id="W_S" edges="W2TL TL2E 2_TL2S" />
    <vehicle id="S_E_0" type="standard_car" route="S_E" depart="41" departLane="random" departSpeed="10" />
    <vehicle id="W_S_1" type="standard_car" route="W_S" depart="59" departLane="random" departSpeed="10" />
    <vehicle id="N_W_2" type="standard_car" route="N_W" depart="78" departLane="random" departSpeed="10" />
    <vehicle id="W_E_3" type="standard_car" route="W_E" depart="81" departLane="random" departSpeed="10" />
    <vehicle id="S_N_1_4" type="standard_car" route="S_N_1" depart="90" departLane="random" departSpeed="10" />
    <vehicle id="N_S_2_5" type="standard_car" route="N_S_2" depart="99" departLane="random" departSpeed="10" />
    <vehicle id="E_N_6" type="standard_car" route="E_N" depart="101" departLane="random" departSpeed="10" />
    <vehicle id="S_N_2_7" type="standard_car" route="S_N_2" depart="114" departLane="random" departSpeed="10" />
    <vehicle id="E_W_8" type="standard_car" route="E_W" depart="117" departLane="random" departSpeed="10" />
    <vehicle id="N_S_1_9" type="standard_car" route="N_S_1" depart="117" departLane="random" departSpeed="10" />
    <vehicle id="N_S_1_10" type="standard_car" route="N_S_1" depart="121" departLane="random" departSpeed="10" />
    <vehicle id="S_N_2_11" type="standard_car" route="S_N_2" depart="121" departLane="random" departSpeed="10" />
    <vehicle id="S_E_12" type="standard_car" route="S_E" depart="122" departLane="random" departSpeed="10" />
    <vehicle id="N_S_2_13" type="standard_car" route="N_S_2" depart="124" departLane="random" departSpeed="10" />
    <vehicle id="S_E_14" type="standard_car" route="S_E" depart="128" departLane="random" departSpeed="10" />
    <vehicle id="W_E_15" type="standard_car" route="W_E" depart="132" departLane="random" departSpeed="10" />
    <vehicle id="S_E_16" type="standard_car" route="S_E" depart="149" departLane="random" departSpeed="10" />
    <vehicle id="W_E_17" type="standard_car" route="W_E" depart="149" departLane="random" departSpeed="10" />
    <vehicle id="E_W_18" type="standard_car" route="E_W" depart="156" departLane="random" departSpeed="10" />
    <vehicle id="W_E_19" type="standard_car" route="W_E" depart="161" departLane="random" departSpeed="10" />
    <vehicle id="S_N_1_20" type="standard_car" route="S_N_1" depart="166" departLane="random" departSpeed="10" />
    <vehicle id="S_E_21" type="standard_car" route="S_E" depart="170" departLane="random" departSpeed="10" />
    <vehicle id="N_W_22" type="standard_car" route="N_W" depart="177" departLane="random" departSpeed="10" />
    <vehicle id="E_W_23" type="standard_car" route="E_W" depart="181" departLane="random" departSpeed="10" />
    <vehicle id="N_S_2_24" type="standard_car" route="N_S_2" depart="182" departLane="random" departSpeed="10" />
    <vehicle id="S_N_2_25" type="standard_car" route="S_N_2" depart="182" departLane="random" departSpeed="10" />
    <vehicle id="E_W_26" type="standard_car" route="E_W" depart="187" departLane="random" departSpeed="10" />
    <vehicle id="N_W_27" type="standard_car" route="N_W" depart="195" departLane="random" departSpeed="10" />
    <vehicle id="E_W_28" type="standard_car" route="E_W" depart="198" departLane="random" departSpeed="10" />
    <vehicle id="W_E_29" type="standard_car" route="W_E" depart="198" departLane="random" departSpeed="10" />
    <vehicle id="S_E_30" type="standard_car" route="S_E" depart="199" departLane="random" departSpeed="10" />
    <vehicle id="N_S_1_31" type="standard_car" route="N_S_1" depart="202" departLane="random" departSpeed="10" />
    <vehicle id="E_W_32" type="standard_car" route="E_W" depart="202" departLane="random" departSpeed="10" />
    <vehicle id="S_E_33" type="standard_car" route="S_E" depart="207" departLane="random" departSpeed="10" />
    <vehicle id="N_W_34" type="standard_car" route="N_W" depart="212" departLane="random" departSpeed="10" />
    <vehicle id="W_E_35" type="standard_car" route="W_E" depart="218" departLane="random" departSpeed="10" />
    <vehicle id="W_E_36" type="standard_car" route="W_E" depart="220" departLane="random" departSpeed="10" />
    <vehicle id="E_N_37" type="standard_car" route="E_N" depart="223" departLane="random" departSpeed="10" />
    <vehicle id="N_S_2_38" type="standard_car" route="N_S_2" depart="228" departLane="random" departSpeed="10" />
    <vehicle id="E_W_39" type="standard_car" route="E_W" depart="229" departLane="random" departSpeed="10" />
    <vehicle id="N_S_1_40" type="standard_car" route="N_S_1" depart="237" departLane="random" departSpeed="10" />
    <vehicle id="W_E_41" type="standard_car" route="W_E" depart="240" departLane="random" departSpeed="10" />
    <vehicle id="E_N_42" type="standard_car" route="E_N" depart="243" departLane="random" departSpeed="10" />
    <vehicle id="W_E_43" type="standard_car" route="W_E" depart="251" departLane="random" departSpeed="10" />
    <vehicle id="N_S_1_44" type="standard_car" route="N_S_1" depart="253" departLane="random" departSpeed="10" />
    <vehicle id="S_N_2_45" type="standard_car" route="S_N_2" depart="260" departLane="random" departSpeed="10" />
    <vehicle id="W_E_46" type="standard_car" route="W_E" depart="273" departLane="random" departSpeed="10" />
    <vehicle id="E_N_47" type="standard_car" route="E_N" depart="274" departLane="random" departSpeed="10" />
    <vehicle id="E_W_48" type="standard_car" route="E_W" depart="276" departLane="random" departSpeed="10" />
    <vehicle id="E_N_49" type="standard_car" route="E_N" depart="276" departLane="random" departSpeed="10" />
    <vehicle id="N_S_1_50" type="standard_car" route="N_S_1" depart="279" departLane="random" departSpeed="10" />
    <vehicle id="E_W_51" type="standard_car" route="E_W" depart="281" departLane="random" departSpeed="10" />
    <vehicle id="N_S_1_52" type="standard_car" route="N_S_1" depart="283" departLane="random" departSpeed="10" />
    <vehicle id="E_N_53" type="standard_car" route="E_N" depart="285" departLane="random" departSpeed="10" />
    <vehicle id="N_S_2_54" type="standard_car" route="N_S_2" depart="285" departLane="random" departSpeed="10" />
    <vehicle id="W_E_55" type="standard_car" route="W_E" depart="286" departLane="random" departSpeed="10" />
    <vehicle id="N_S_2_56" type="standard_car" route="N_S_2" depart="287" departLane="random" departSpeed="10" />
    <vehicle id="E_W_57" type="standard_car" route="E_W" depart="292" departLane="random" departSpeed="10" />
    <vehicle id="S_N_1_58" type="standard_car" route="S_N_1" depart="292" departLane="random" departSpeed="10" />
    <vehicle id="W_E_59" type="standard_car" route="W_E" depart="293" departLane="random" departSpeed="10" />
    <vehicle id="E_N_60" type="standard_car" route="E_N" depart="294" departLane="random" departSpeed="10" />
    <vehicle id="S_E_61" type="standard_car" route="S_E" depart="296" departLane="random" departSpeed="10" />
    <vehicle id="W_E_62" type="standard_car" route="W_E" depart="298" departLane="random" departSpeed="10" />
    <vehicle id="N_S_2_63" type="standard_car" route="N_S_2" depart="301" departLane="random" departSpeed="10" />
    <vehicle id="W_E_64" type="standard_car" route="W_E" depart="302" departLane="random" departSpeed="10" />
    <vehicle id="E_W_65" type="standard_car" route="E_W" depart="305" departLane="random" departSpeed="10" />
    <vehicle id="S_N_1_66" type="standard_car" route="S_N_1" depart="306" departLane="random" departSpeed="10" />
    <vehicle id="W_E_67" type="standard_car" route="W_E" depart="309" departLane="random" departSpeed="10" />
    <vehicle id="N_S_1_68" type="standard_car" route="N_S_1" depart="309" departLane="random" departSpeed="10" />
    <vehicle id="S_E_69" type="standard_car" route="S_E" depart="310" departLane="random" departSpeed="10" />
    <vehicle id="W_E_70" type="standard_car" route="W_E" depart="318" departLane="random" departSpeed="10" />
    <vehicle id="W_S_71" type="standard_car" route="W_S" depart="321" departLane="random" departSpeed="10" />
    <vehicle id="N_S_1_72" type="standard_car" route="N_S_1" depart="324" departLane="random" departSpeed="10" />
    <vehicle id="N_S_2_73" type="standard_car" route="N_S_2" depart="325" departLane="random" departSpeed="10" />
    <vehicle id="S_N_1_74" type="standard_car" route="S_N_1" depart="325" departLane="random" departSpeed="10" />
    <vehicle id="E_W_75" type="standard_car" route="E_W" depart="325" departLane="random" departSpeed="10" />
    <vehicle id="E_W_76" type="standard_car" route="E_W" depart="325" departLane="random" departSpeed="10" />
    <vehicle id="W_E_77" type="standard_car" route="W_E" depart="330" departLane="random" departSpeed="10" />
    <vehicle id="E_W_78" type="standard_car" route="E_W" depart="330" departLane="random" departSpeed="10" />
    <vehicle id="S_N_1_79" type="standard_car" route="S_N_1" depart="333" departLane="random" departSpeed="10" />
    <vehicle id="S_N_2_80" type="standard_car" route="S_N_2" depart="339" departLane="random" departSpeed="10" />
    <vehicle id="N_S_2_81" type="standard_car" route="N_S_2" depart="339" departLane="random" departSpeed="10" />
    <vehicle id="E_W_82" type="standard_car" route="E_W" depart="340" departLane="random" departSpeed="10" />
    <vehicle id="W_S_83" type="standard_car" route="W_S" depart="340" departLane="random" departSpeed="10" />
    <vehicle id="S_N_2_84" type="standard_car" route="S_N_2" depart="342" departLane="random" departSpeed="10" />
    <vehicle id="N_S_2_85" type="standard_car" route="N_S_2" depart="342" departLane="random" departSpeed="10" />
    <vehicle id="S_N_2_86" type="standard_car" route="S_N_2" depart="343" departLane="random" departSpeed="10" />
    <vehicle id="W_E_87" type="standard_car" route="W_E" depart="347" departLane="random" departSpeed="10" />
    <vehicle id="E_W_88" type="standard_car" route="E_W" depart="347" departLane="random" departSpeed="10" />
    <vehicle id="N_S_2_89" type="standard_car" route="N_S_2" depart="349" departLane="random" departSpeed="10" />
    <vehicle id="S_E_90" type="standard_car" route="S_E" depart="352" departLane="random" departSpeed="10" />
    <vehicle id="W_S_91" type="standard_car" route="W_S" depart="353" departLane="random" departSpeed="10" />
    <vehicle id="W_E_92" type="standard_car" route="W_E" depart="353" departLane="random" departSpeed="10" />
    <vehicle id="W_E_93" type="standard_car" route="W_E" depart="354" departLane="random" departSpeed="10" />
    <vehicle id="E_N_94" type="standard_car" route="E_N" depart="357" departLane="random" departSpeed="10" />
    <vehicle id="W_S_95" type="standard_car" route="W_S" depart="362" departLane="random" departSpeed="10" />
    <vehicle id="W_E_96" type="standard_car" route="W_E" depart="362" departLane="random" departSpeed="10" />
    <vehicle id="S_E_97" type="standard_car" route="S_E" depart="364" departLane="random" departSpeed="10" />
    <vehicle id="S_E_98" type="standard_car" route="S_E" depart="364" departLane="random" departSpeed="10" />
    <vehicle id="E_W_99" type="standard_car" route="E_W" depart="364" departLane="random" departSpeed="10" />
    <vehicle id="S_E_100" type="standard_car" route="S_E" depart="365" departLane="random" departSpeed="10" />
    <vehicle id="N_S_2_101" type="standard_car" route="N_S_2" depart="365" departLane="random" departSpeed="10" />
    <vehicle id="N_S_1_102" type="standard_car" route="N_S_1" depart="367" departLane="random" departSpeed="10" />
    <vehicle id="S_N_2_103" type="standard_car" route="S_N_2" depart="368" departLane="random" departSpeed="10" />
    <vehicle id="E_W_104" type="standard_car" route="E_W" depart="371" departLane="random" departSpeed="10" />
    <vehicle id="W_S_105" type="standard_car" route="W_S" depart="373" departLane="random" departSpeed="10" />
    <vehicle id="W_E_106" type="standard_car" route="W_E" depart="375" departLane="random" departSpeed="10" />
    <vehicle id="N_S_1_107" type="standard_car" route="N_S_1" depart="375" departLane="random" departSpeed="10" />
    <vehicle id="E_N_108" type="standard_car" route="E_N" depart="376" departLane="random" departSpeed="10" />
    <vehicle id="E_W_109" type="standard_car" route="E_W" depart="378" departLane="random" departSpeed="10" />
    <vehicle id="E_N_110" type="standard_car" route="E_N" depart="386" departLane="random" departSpeed="10" />
    <vehicle id="W_S_111" type="standard_car" route="W_S" depart="388" departLane="random" departSpeed="10" />
    <vehicle id="N_S_1_112" type="standard_car" route="N_S_1" depart="389" departLane="random" departSpeed="10" />
    <vehicle id="E_W_113" type="standard_car" route="E_W" depart="391" departLane="random" departSpeed="10" />
    <vehicle id="S_E_114" type="standard_car" route="S_E" depart="393" departLane="random" departSpeed="10" />
    <vehicle id="W_E_115" type="standard_car" route="W_E" depart="394" departLane="random" departSpeed="10" />
    <vehicle id="W_E_116" type="standard_car" route="W_E" depart="399" departLane="random" departSpeed="10" />
    <vehicle id="N_S_1_117" type="standard_car" route="N_S_1" depart="401" departLane="random" departSpeed="10" />
    <vehicle id="E_W_118" type="standard_car" route="E_W" depart="404" departLane="random" departSpeed="10" />
    <vehicle id="E_W_119" type="standard_car" route="E_W" depart="404" departLane="random" departSpeed="10" />
    <vehicle id="E_N_120" type="standard_car" route="E_N" depart="409" departLane="random" departSpeed="10" />
    <vehicle id="S_N_1_121" type="standard_car" route="S_N_1" depart="411" departLane="random" departSpeed="10" />
    <vehicle id="S_N_2_122" type="standard_car" route="S_N_2" depart="419" departLane="random" departSpeed="10" />
    <vehicle id="N_W_123" type="standard_car" route="N_W" depart="419" departLane="random" departSpeed="10" />
    <vehicle id="W_E_124" type="standard_car" route="W_E" depart="419" departLane="random" departSpeed="10" />
    <vehicle id="N_S_2_125" type="standard_car" route="N_S_2" depart="420" departLane="random" departSpeed="10" />
    <vehicle id="W_E_126" type="standard_car" route="W_E" depart="420" departLane="random" departSpeed="10" />
    <vehicle id="S_E_127" type="standard_car" route="S_E" depart="422" departLane="random" departSpeed="10" />
    <vehicle id="N_S_1_128" type="standard_car" route="N_S_1" depart="423" departLane="random" departSpeed="10" />
    <vehicle id="E_N_129" type="standard_car" route="E_N" depart="424" departLane="random" departSpeed="10" />
    <vehicle id="S_N_1_130" type="standard_car" route="S_N_1" depart="425" departLane="random" departSpeed="10" />
    <vehicle id="E_W_131" type="standard_car" route="E_W" depart="426" departLane="random" departSpeed="10" />
    <vehicle id="N_S_1_132" type="standard_car" route="N_S_1" depart="427" departLane="random" departSpeed="10" />
    <vehicle id="N_S_2_133" type="standard_car" route="N_S_2" depart="429" departLane="random" departSpeed="10" />
    <vehicle id="N_S_1_134" type="standard_car" route="N_S_1" depart="430" departLane="random" departSpeed="10" />
    <vehicle id="E_N_135" type="standard_car" route="E_N" depart="431" departLane="random" departSpeed="10" />
    <vehicle id="S_E_136" type="standard_car" route="S_E" depart="434" departLane="random" departSpeed="10" />
    <vehicle id="E_W_137" type="standard_car" route="E_W" depart="435" departLane="random" departSpeed="10" />
    <vehicle id="W_S_138" type="standard_car" route="W_S" depart="435" departLane="random" departSpeed="10" />
    <vehicle id="N_S_1_139" type="standard_car" route="N_S_1" depart="435" departLane="random" departSpeed="10" />
    <vehicle id="W_E_140" type="standard_car" route="W_E" depart="436" departLane="random" departSpeed="10" />
    <vehicle id="W_S_141" type="standard_car" route="W_S" depart="438" departLane="random" departSpeed="10" />
    <vehicle id="E_N_142" type="standard_car" route="E_N" depart="439" departLane="random" departSpeed="10" />
    <vehicle id="S_E_143" type="standard_car" route="S_E" depart="445" departLane="random" departSpeed="10" />
    <vehicle id="S_N_1_144" type="standard_car" route="S_N_1" depart="447" departLane="random" departSpeed="10" />
    <vehicle id="E_N_145" type="standard_car" route="E_N" depart="447" departLane="random" departSpeed="10" />
    <vehicle id="E_N_146" type="standard_car" route="E_N" depart="447" departLane="random" departSpeed="10" />
    <vehicle id="S_N_2_147" type="standard_car" route="S_N_2" depart="451" departLane="random" departSpeed="10" />
    <vehicle id="N_S_1_148" type="standard_car" route="N_S_1" depart="453" departLane="random" departSpeed="10" />
    <vehicle id="E_W_149" type="standard_car" route="E_W" depart="456" departLane="random" departSpeed="10" />
    <vehicle id="W_E_150" type="standard_car" route="W_E" depart="457" departLane="random" departSpeed="10" />
    <vehicle id="E_W_151" type="standard_car" route="E_W" depart="461" departLane="random" departSpeed="10" />
    <vehicle id="N_W_152" type="standard_car" route="N_W" depart="461" departLane="random" departSpeed="10" />
    <vehicle id="E_W_153" type="standard_car" route="E_W" depart="467" departLane="random" departSpeed="10" />
    <vehicle id="N_S_1_154" type="standard_car" route="N_S_1" depart="467" departLane="random" departSpeed="10" />
    <vehicle id="E_W_155" type="standard_car" route="E_W" depart="468" departLane="random" departSpeed="10" />
    <vehicle id="S_N_2_156" type="standard_car" route="S_N_2" depart="469" departLane="random" departSpeed="10" />
    <vehicle id="S_E_157" type="standard_car" route="S_E" depart="471" departLane="random" departSpeed="10" />
    <vehicle id="W_E_158" type="standard_car" route="W_E" depart="475" departLane="random" departSpeed="10" />
    <vehicle id="S_E_159" type="standard_car" route="S_E" depart="479" departLane="random" departSpeed="10" />
    <vehicle id="N_S_2_160" type="standard_car" route="N_S_2" depart="479" departLane="random" departSpeed="10" />
    <vehicle id="W_E_161" type="standard_car" route="W_E" depart="485" departLane="random" departSpeed="10" />
    <vehicle id="S_E_162" type="standard_car" route="S_E" depart="486" departLane="random" departSpeed="10" />
    <vehicle id="N_W_163" type="standard_car" route="N_W" depart="486" departLane="random" departSpeed="10" />
    <vehicle id="E_W_164" type="standard_car" route="E_W" depart="487" departLane="random" departSpeed="10" />
    <vehicle id="N_W_165" type="standard_car" route="N_W" depart="489" departLane="random" departSpeed="10" />
    <vehicle id="N_W_166" type="standard_car" route="N_W" depart="492" departLane="random" departSpeed="10" />
    <vehicle id="W_S_167" type="standard_car" route="W_S" depart="493" departLane="random" departSpeed="10" />
    <vehicle id="W_E_168" type="standard_car" route="W_E" depart="493" departLane="random" departSpeed="10" />
    <vehicle id="W_E_169" type="standard_car" route="W_E" depart="495" departLane="random" departSpeed="10" />
    <vehicle id="S_N_1_170" type="standard_car" route="S_N_1" depart="501" departLane="random" departSpeed="10" />
    <vehicle id="N_S_1_171" type="standard_car" route="N_S_1" depart="502" departLane="random" departSpeed="10" />
    <vehicle id="N_W_172" type="standard_car" route="N_W" depart="508" departLane="random" departSpeed="10" />
    <vehicle id="E_W_173" type="standard_car" route="E_W" depart="512" departLane="random" departSpeed="10" />
    <vehicle id="N_S_1_174" type="standard_car" route="N_S_1" depart="515" departLane="random" departSpeed="10" />
    <vehicle id="E_N_175" type="standard_car" route="E_N" depart="516" departLane="random" departSpeed="10" />
    <vehicle id="W_E_176" type="standard_car" route="W_E" depart="520" departLane="random" departSpeed="10" />
    <vehicle id="E_W_177" type="standard_car" route="E_W" depart="520" departLane="random" departSpeed="10" />
    <vehicle id="N_W_178" type="standard_car" route="N_W" depart="521" departLane="random" departSpeed="10" />
    <vehicle id="W_E_179" type="standard_car" route="W_E" depart="522" departLane="random" departSpeed="10" />
    <vehicle id="W_S_180" type="standard_car" route="W_S" depart="524" departLane="random" departSpeed="10" />
    <vehicle id="W_S_181" type="standard_car" route="W_S" depart="524" departLane="random" departSpeed="10" />
    <vehicle id="S_N_2_182" type="standard_car" route="S_N_2" depart="525" departLane="random" departSpeed="10" />
    <vehicle id="E_N_183" type="standard_car" route="E_N" depart="528" departLane="random" departSpeed="10" />
    <vehicle id="S_N_1_184" type="standard_car" route="S_N_1" depart="529" departLane="random" departSpeed="10" />
    <vehicle id="N_S_2_185" type="standard_car" route="N_S_2" depart="529" departLane="random" departSpeed="10" />
    <vehicle id="N_S_2_186" type="standard_car" route="N_S_2" depart="535" departLane="random" departSpeed="10" />
    <vehicle id="N_S_2_187" type="standard_car" route="N_S_2" depart="537" departLane="random" departSpeed="10" />
    <vehicle id="E_N_188" type="standard_car" route="E_N" depart="537" departLane="random" departSpeed="10" />
    <vehicle id="S_N_1_189" type="standard_car" route="S_N_1" depart="544" departLane="random" departSpeed="10" />
    <vehicle id="N_S_1_190" type="standard_car" route="N_S_1" depart="546" departLane="random" departSpeed="10" />
    <vehicle id="N_S_2_191" type="standard_car" route="N_S_2" depart="547" departLane="random" departSpeed="10" />
    <vehicle id="E_W_192" type="standard_car" route="E_W" depart="550" departLane="random" departSpeed="10" />
    <vehicle id="N_S_1_193" type="standard_car" route="N_S_1" depart="552" departLane="random" departSpeed="10" />
    <vehicle id="W_E_194" type="standard_car" route="W_E" depart="557" departLane="random" departSpeed="10" />
    <vehicle id="S_N_2_195" type="standard_car" route="S_N_2" depart="559" departLane="random" departSpeed="10" />
    <vehicle id="N_W_196" type="standard_car" route="N_W" depart="567" departLane="random" departSpeed="10" />
    <vehicle id="S_E_197" type="standard_car" route="S_E" depart="569" departLane="random" departSpeed="10" />
    <vehicle id="E_W_198" type="standard_car" route="E_W" depart="572" departLane="random" departSpeed="10" />
    <vehicle id="N_S_2_199" type="standard_car" route="N_S_2" depart="572" departLane="random" departSpeed="10" />
    <vehicle id="E_N_200" type="standard_car" route="E_N" depart="574" departLane="random" departSpeed="10" />
    <vehicle id="S_E_201" type="standard_car" route="S_E" depart="577" departLane="random" departSpeed="10" />
    <vehicle id="S_N_2_202" type="standard_car" route="S_N_2" depart="578" departLane="random" departSpeed="10" />
    <vehicle id="W_S_203" type="standard_car" route="W_S" depart="579" departLane="random" departSpeed="10" />
    <vehicle id="N_S_2_204" type="standard_car" route="N_S_2" depart="580" departLane="random" departSpeed="10" />
    <vehicle id="W_S_205" type="standard_car" route="W_S" depart="580" departLane="random" departSpeed="10" />
    <vehicle id="N_S_1_206" type="standard_car" route="N_S_1" depart="584" departLane="random" departSpeed="10" />
    <vehicle id="N_W_207" type="standard_car" route="N_W" depart="586" departLane="random" departSpeed="10" />
    <vehicle id="N_S_1_208" type="standard_car" route="N_S_1" depart="586" departLane="random" departSpeed="10" />
    <vehicle id="E_N_209" type="standard_car" route="E_N" depart="587" departLane="random" departSpeed="10" />
    <vehicle id="N_S_1_210" type="standard_car" route="N_S_1" depart="589" departLane="random" departSpeed="10" />
    <vehicle id="W_E_211" type="standard_car" route="W_E" depart="591" departLane="random" departSpeed="10" />
    <vehicle id="S_E_212" type="standard_car" route="S_E" depart="594" departLane="random" departSpeed="10" />
    <vehicle id="N_S_2_213" type="standard_car" route="N_S_2" depart="595" departLane="random" departSpeed="10" />
    <vehicle id="E_W_214" type="standard_car" route="E_W" depart="595" departLane="random" departSpeed="10" />
    <vehicle id="N_W_215" type="standard_car" route="N_W" depart="596" departLane="random" departSpeed="10" />
    <vehicle id="N_W_216" type="standard_car" route="N_W" depart="597" departLane="random" departSpeed="10" />
    <vehicle id="S_N_2_217" type="standard_car" route="S_N_2" depart="597" departLane="random" departSpeed="10" />
    <vehicle id="N_S_1_218" type="standard_car" route="N_S_1" depart="599" departLane="random" departSpeed="10" />
    <vehicle id="W_E_219" type="standard_car" route="W_E" depart="599" departLane="random" departSpeed="10" />
    <vehicle id="E_N_220" type="standard_car" route="E_N" depart="599" departLane="random" departSpeed="10" />
    <vehicle id="W_E_221" type="standard_car" route="W_E" depart="604" departLane="random" departSpeed="10" />
    <vehicle id="S_E_222" type="standard_car" route="S_E" depart="605" departLane="random" departSpeed="10" />
    <vehicle id="S_N_1_223" type="standard_car" route="S_N_1" depart="609" departLane="random" departSpeed="10" />
    <vehicle id="S_N_1_224" type="standard_car" route="S_N_1" depart="615" departLane="random" departSpeed="10" />
    <vehicle id="S_E_225" type="standard_car" route="S_E" depart="617" departLane="random" departSpeed="10" />
    <vehicle id="N_S_2_226" type="standard_car" route="N_S_2" depart="617" departLane="random" departSpeed="10" />
    <vehicle id="N_S_2_227" type="standard_car" route="N_S_2" depart="619" departLane="random" departSpeed="10" />
    <vehicle id="S_N_1_228" type="standard_car" route="S_N_1" depart="622" departLane="random" departSpeed="10" />
    <vehicle id="W_E_229" type="standard_car" route="W_E" depart="622" departLane="random" departSpeed="10" />
    <vehicle id="S_N_2_230" type="standard_car" route="S_N_2" depart="624" departLane="random" departSpeed="10" />
    <vehicle id="N_S_1_231" type="standard_car" route="N_S_1" depart="625" departLane="random" departSpeed="10" />
    <vehicle id="N_S_1_232" type="standard_car" route="N_S_1" depart="626" departLane="random" departSpeed="10" />
    <vehicle id="S_E_233" type="standard_car" route="S_E" depart="627" departLane="random" departSpeed="10" />
    <vehicle id="E_W_234" type="standard_car" route="E_W" depart="627" departLane="random" departSpeed="10" />
    <vehicle id="S_N_2_235" type="standard_car" route="S_N_2" depart="627" departLane="random" departSpeed="10" />
    <vehicle id="E_W_236" type="standard_car" route="E_W" depart="630" departLane="random" departSpeed="10" />
    <vehicle id="W_S_237" type="standard_car" route="W_S" depart="634" departLane="random" departSpeed="10" />
    <vehicle id="N_S_2_238" type="standard_car" route="N_S_2" depart="635" departLane="random" departSpeed="10" />
    <vehicle id="W_E_239" type="standard_car" route="W_E" depart="636" departLane="random" departSpeed="10" />
    <vehicle id="S_N_2_240" type="standard_car" route="S_N_2" depart="638" departLane="random" departSpeed="10" />
    <vehicle id="S_N_1_241" type="standard_car" route="S_N_1" depart="639" departLane="random" departSpeed="10" />
    <vehicle id="S_N_1_242" type="standard_car" route="S_N_1" depart="641" departLane="random" departSpeed="10" />
    <vehicle id="N_S_1_243" type="standard_car" route="N_S_1" depart="643" departLane="random" departSpeed="10" />
    <vehicle id="E_N_244" type="standard_car" route="E_N" depart="644" departLane="random" departSpeed="10" />
    <vehicle id="W_S_245" type="standard_car" route="W_S" depart="645" departLane="random" departSpeed="10" />
    <vehicle id="W_S_246" type="standard_car" route="W_S" depart="645" departLane="random" departSpeed="10" />
    <vehicle id="W_E_247" type="standard_car" route="W_E" depart="648" departLane="random" departSpeed="10" />
    <vehicle id="N_S_1_248" type="standard_car" route="N_S_1" depart="649" departLane="random" departSpeed="10" />
    <vehicle id="W_S_249" type="standard_car" route="W_S" depart="650" departLane="random" departSpeed="10" />
    <vehicle id="E_N_250" type="standard_car" route="E_N" depart="652" departLane="random" departSpeed="10" />
    <vehicle id="E_W_251" type="standard_car" route="E_W" depart="654" departLane="random" departSpeed="10" />
    <vehicle id="N_S_1_252" type="standard_car" route="N_S_1" depart="654" departLane="random" departSpeed="10" />
    <vehicle id="S_E_253" type="standard_car" route="S_E" depart="657" departLane="random" departSpeed="10" />
    <vehicle id="W_E_254" type="standard_car" route="W_E" depart="659" departLane="random" departSpeed="10" />
    <vehicle id="W_S_255" type="standard_car" route="W_S" depart="661" departLane="random" departSpeed="10" />
    <vehicle id="N_S_1_256" type="standard_car" route="N_S_1" depart="663" departLane="random" departSpeed="10" />
    <vehicle id="S_N_1_257" type="standard_car" route="S_N_1" depart="664" departLane="random" departSpeed="10" />
    <vehicle id="N_S_2_258" type="standard_car" route="N_S_2" depart="664" departLane="random" departSpeed="10" />
    <vehicle id="E_W_259" type="standard_car" route="E_W" depart="664" departLane="random" departSpeed="10" />