<routes>
            <vType id="emergency" accel="3.0" decel="6.0" color="1,0,0" maxSpeed="20" sigma="0.5" emergency="true" />
            <vType id="standard_car" accel="1.0" decel="4.5" length="5.0" minGap="2.5" maxSpeed="25" sigma="0.5" />
            <route id="E_W" edges="2_E2TL 2_TL2W TL2W" />
            <route id="W_E" edges="W2TL TL2E 2_TL2E" />
            <route id="N_S_1" edges="2_N2TL 2_TL2S" />
            <route id="N_S_2" edges="N2TL TL2S" />
            <route id="S_N_1" edges="S2TL TL2N" />
            <route id="S_N_2" edges="2_S2TL 2_TL2N" />
            <route id="N_W" edges="2_N2TL 2_TL2W" />
            <route id="S_E" edges="S2TL TL2E" />
            <route id="E_N" edges="2_E2TL 2_TL2N" />
            <route id="W_S" edges="W2TL TL2E 2_TL2S" />
    <vehicle id="S_E_0" type="standard_car" route="S_E" depart="35" departLane="random" departSpeed="10" />
    <vehicle id="E_W_1" type="standard_car" route="E_W" depart="59" departLane="random" departSpeed="10" />
    <vehicle id="W_S_2" type="standard_car" route="W_S" depart="62" departLane="random" departSpeed="10" />
    <vehicle id="S_N_1_3" type="standard_car" route="S_N_1" depart="65" departLane="random" departSpeed="10" />
    <vehicle id="N_S_2_4" type="standard_car" route="N_S_2" depart="73" departLane="random" departSpeed="10" />
    <vehicle id="N_S_1_5" type="standard_car" route="N_S_1" depart="74" departLane="random" departSpeed="10" />
    <vehicle id="N_W_6" type="standard_car" route="N_W" depart="83" departLane="random" departSpeed="10" />
    <vehicle id="S_N_2_7" type="standard_car" route="S_N_2" depart="85" departLane="random" departSpeed="10" />
    <vehicle id="W_E_8" type="standard_car" route="W_E" depart="106" departLane="random" departSpeed="10" />
    <vehicle id="E_N_9" type="standard_car" route="E_N" depart="108" departLane="random" departSpeed="10" />
    <vehicle id="N_W_10" type="standard_car" route="N_W" depart="114" departLane="random" departSpeed="10" />
    <vehicle id="S_E_11" type="standard_car" route="S_E" depart="115" departLane="random" departSpeed="10" />
    <vehicle id="S_N_2_12" type="standard_car" route="S_N_2" depart="121" departLane="random" departSpeed="10" />
    <vehicle id="W_E_13" type="standard_car" route="W_E" depart="131" departLane="random" departSpeed="10" />
    <vehicle id="S_N_1_14" type="standard_car" route="S_N_1" depart="147" departLane="random" departSpeed="10" />
    <vehicle id="N_W_15" type="standard_car" route="N_W" depart="165" departLane="random" departSpeed="10" />
    <vehicle id="E_W_16" type="standard_car" route="E_W" depart="178" departLane="random" departSpeed="10" />
    <vehicle id="W_S_17" type="standard_car" route="W_S" depart="181" departLane="random" departSpeed="10" />
    <vehicle id="E_N_18" type="standard_car" route="E_N" depart="181" departLane="random" departSpeed="10" />
    <vehicle id="S_N_2_19" type="standard_car" route="S_N_2" depart="182" departLane="random" departSpeed="10" />
    <vehicle id="W_E_20" type="standard_car" route="W_E" depart="193" departLane="random" departSpeed="10" />
    <vehicle id="W_E_21" type="standard_car" route="W_E" depart="199" departLane="random" departSpeed="10" />
    <vehicle id="E_N_22" type="standard_car" route="E_N" depart="201" departLane="random" departSpeed="10" />
    <vehicle id="W_E_23" type="standard_car" route="W_E" depart="202" departLane="random" departSpeed="10" />
    <vehicle id="N_S_1_24" type="standard_car" route="N_S_1" depart="204" departLane="random" departSpeed="10" />
    <vehicle id="S_N_2_25" type="standard_car" route="S_N_2" depart="205" departLane="random" departSpeed="10" />
    <vehicle id="S_E_26" type="standard_car" route="S_E" depart="207" departLane="random" departSpeed="10" />
    <vehicle id="E_W_27" type="standard_car" route="E_W" depart="214" departLane="random" departSpeed="10" />
    <vehicle id="S_N_1_28" type="standard_car" route="S_N_1" depart="214" departLane="random" departSpeed="10" />
    <vehicle id="S_E_29" type="standard_car" route="S_E" depart="218" departLane="random" departSpeed="10" />
    <vehicle id="S_E_30" type="standard_car" route="S_E" depart="219" departLane="random" departSpeed="10" />
    <vehicle id="W_E_31" type="standard_car" route="W_E" depart="221" departLane="random" departSpeed="10" />
    <vehicle id="E_W_32" type="standard_car" route="E_W" depart="221" departLane="random" departSpeed="10" />
    <vehicle id="S_N_2_33" type="standard_car" route="S_N_2" depart="240" departLane="random" departSpeed="10" />
    <vehicle id="N_W_34" type="standard_car" route="N_W" depart="245" departLane="random" departSpeed="10" />
    <vehicle id="W_S_35" type="standard_car" route="W_S" depart="253" departLane="random" departSpeed="10" />
    <vehicle id="W_E_36" type="standard_car" route="W_E" depart="257" departLane="random" departSpeed="10" />
    <vehicle id="E_W_37" type="standard_car" route="E_W" depart="257" departLane="random" departSpeed="10" />
    <vehicle id="E_W_38" type="standard_car" route="E_W" depart="258" departLane="random" departSpeed="10" />
    <vehicle id="S_N_2_39" type="standard_car" route="S_N_2" depart="258" departLane="random" departSpeed="10" />
    <vehicle id="S_E_40" type="standard_car" route="S_E" depart="261" departLane="random" departSpeed="10" />
    <vehicle id="S_N_2_41" type="standard_car" route="S_N_2" depart="268" departLane="random" departSpeed="10" />
    <vehicle id="N_S_2_42" type="standard_car" route="N_S_2" depart="269" departLane="random" departSpeed="10" />
    <vehicle id="N_S_1_43" type="standard_car" route="N_S_1" depart="274" departLane="random" departSpeed="10" />
    <vehicle id="S_N_1_44" type="standard_car" route="S_N_1" depart="274" departLane="random" departSpeed="10" />
    <vehicle id="W_E_45" type="standard_car" route="W_E" depart="277" departLane="random" departSpeed="10" />
    <vehicle id="S_E_46" type="standard_car" route="S_E" depart="282" departLane="random" departSpeed="10" />
    <vehicle id="N_S_2_47" type="standard_car" route="N_S_2" depart="292" departLane="random" departSpeed="10" />
    <vehicle id="E_N_48" type="standard_car" route="E_N" depart="297" departLane="random" departSpeed="10" />
    <vehicle id="W_E_49" type="standard_car" route="W_E" depart="300" departLane="random" departSpeed="10" />
    <vehicle id="N_S_2_50" type="standard_car" route="N_S_2" depart="301" departLane="random" departSpeed="10" />
    <vehicle id="N_S_1_51" type="standard_car" route="N_S_1" depart="304" departLane="random" departSpeed="10" />
    <vehicle id="E_W_52" type="standard_car" route="E_W" depart="307" departLane="random" departSpeed="10" />
    <vehicle id="N_S_1_53" type="standard_car" route="N_S_1" depart="309" departLane="random" departSpeed="10" />
    <vehicle id="E_W_54" type="standard_car" route="E_W" depart="320" departLane="random" departSpeed="10" />
    <vehicle id="E_W_55" type="standard_car" route="E_W" depart="323" departLane="random" departSpeed="10" />
    <vehicle id="E_W_56" type="standard_car" route="E_W" depart="325" departLane="random" departSpeed="10" />
    <vehicle id="S_N_2_57" type="standard_car" route="S_N_2" depart="327" departLane="random" departSpeed="10" />
    <vehicle id="W_S_58" type="standard_car" route="W_S" depart="327" departLane="random" departSpeed="10" />
    <vehicle id="N_S_1_59" type="standard_car" route="N_S_1" depart="336" departLane="random" departSpeed="10" />
    <vehicle id="N_S_2_60" type="standard_car" route="N_S_2" depart="339" departLane="random" departSpeed="10" />
    <vehicle id="N_S_1_61" type="standard_car" route="N_S_1" depart="342" departLane="random" departSpeed="10" />
    <vehicle id="N_S_1_62" type="standard_car" route="N_S_1" depart="345" departLane="random" departSpeed="10" />
    <vehicle id="S_N_2_63" type="standard_car" route="S_N_2" depart="348" departLane="random" departSpeed="10" />
    <vehicle id="W_E_64" type="standard_car" route="W_E" depart="351" departLane="random" departSpeed="10" />
    <vehicle id="E_W_65" type="standard_car" route="E_W" depart="351" departLane="random" departSpeed="10" />
    <vehicle id="S_N_1_66" type="standard_car" route="S_N_1" depart="352" departLane="random" departSpeed="10" />
    <vehicle id="S_E_67" type="standard_car" route="S_E" depart="354" departLane="random" departSpeed="10" />
    <vehicle id="N_S_2_68" type="standard_car" route="N_S_2" depart="356" departLane="random" departSpeed="10" />
    <vehicle id="N_S_2_69" type="standard_car" route="N_S_2" depart="367" departLane="random" departSpeed="10" />
    <vehicle id="N_S_1_70" type="standard_car" route="N_S_1" depart="371" departLane="random" departSpeed="10" />
    <vehicle id="S_N_2_71" type="standard_car" route="S_N_2" depart="371" departLane="random" departSpeed="10" />
    <vehicle id="N_W_72" type="standard_car" route="N_W" depart="372" departLane="random" departSpeed="10" />
    <vehicle id="S_E_73" type="standard_car" route="S_E" depart="373" departLane="random" departSpeed="10" />
    <vehicle id="S_N_2_74" type="standard_car" route="S_N_2" depart="374" departLane="random" departSpeed="10" />
    <vehicle id="W_S_75" type="standard_car" route="W_S" depart="375" departLane="random" departSpeed="10" />
    <vehicle id="W_E_76" type="standard_car" route="W_E" depart="377" departLane="random" departSpeed="10" />
    <vehicle id="E_W_77" type="standard_car" route="E_W" depart="382" departLane="random" departSpeed="10" />
    <vehicle id="W_S_78" type="standard_car" route="W_S" depart="385" departLane="random" departSpeed="10" />
    <vehicle id="W_E_79" type="standard_car" route="W_E" depart="386" departLane="random" departSpeed="10" />
    <vehicle id="N_S_2_80" type="standard_car" route="N_S_2" depart="391" departLane="random" departSpeed="10" />
    <vehicle id="N_W_81" type="standard_car" route="N_W" depart="392" departLane="random" departSpeed="10" />
    <vehicle id="N_S_2_82" type="standard_car" route="N_S_2" depart="393" departLane="random" departSpeed="10" />
    <vehicle id="E_N_83" type="standard_car" route="E_N" depart="393" departLane="random" departSpeed="10" />
    <vehicle id="E_N_84" type="standard_car" route="E_N" depart="394" departLane="random" departSpeed="10" />
    <vehicle id="N_W_85" type="standard_car" route="N_W" depart="396" departLane="random" departSpeed="10" />
    <vehicle id="W_E_86" type="standard_car" route="W_E" depart="397" departLane="random" departSpeed="10" />
    <vehicle id="W_E_87" type="standard_car" route="W_E" depart="398" departLane="random" departSpeed="10" />
    <vehicle id="N_S_1_88" type="standard_car" route="N_S_1" depart="403" departLane="random" departSpeed="10" />
    <vehicle id="W_E_89" type="standard_car" route="W_E" depart="405" departLane="random" departSpeed="10" />
    <vehicle id="N_S_2_90" type="standard_car" route="N_S_2" depart="411" departLane="random" departSpeed="10" />
    <vehicle id="W_S_91" type="standard_car" route="W_S" depart="412" departLane="random" departSpeed="10" />
    <vehicle id="W_S_92" type="standard_car" route="W_S" depart="412" departLane="random" departSpeed="10" />
    <vehicle id="N_S_1_93" type="standard_car" route="N_S_1" depart="414" departLane="random" departSpeed="10" />
    <vehicle id="E_W_94" type="standard_car" route="E_W" depart="417" departLane="random" departSpeed="10" />
    <vehicle id="S_E_95" type="standard_car" route="S_E" depart="422" departLane="random" departSpeed="10" />
    <vehicle id="N_W_96" type="standard_car" route="N_W" depart="423" departLane="random" departSpeed="10" />
    <vehicle id="S_N_2_97" type="standard_car" route="S_N_2" depart="424" departLane="random" departSpeed="10" />
    <vehicle id="W_E_98" type="standard_car" route="W_E" depart="426" departLane="random" departSpeed="10" />
    <vehicle id="E_W_99" type="standard_car" route="E_W" depart="427" departLane="random" departSpeed="10" />
    <vehicle id="N_S_1_100" type="standard_car" route="N_S_1" depart="432" departLane="random" departSpeed="10" />
    <vehicle id="E_W_101" type="standard_car" route="E_W" depart="433" departLane="random" departSpeed="10" />
    <vehicle id="N_S_1_102" type="standard_car" route="N_S_1" depart="435" departLane="random" departSpeed="10" />
    <vehicle id="E_W_103" type="standard_car" route="E_W" depart="438" departLane="random" departSpeed="10" />
    <vehicle id="S_N_2_104" type="standard_car" route="S_N_2" depart="441" departLane="random" departSpeed="10" />
    <vehicle id="W_E_105" type="standard_car" route="W_E" depart="441" departLane="random" departSpeed="10" />
    <vehicle id="S_N_2_106" type="standard_car" route="S_N_2" depart="442" departLane="random" departSpeed="10" />
    <vehicle id="N_S_2_107" type="standard_car" route="N_S_2" depart="444" departLane="random" departSpeed="10" />
    <vehicle id="N_S_2_108" type="standard_car" route="N_S_2" depart="447" departLane="random" departSpeed="10" />
    <vehicle id="S_N_2_109" type="standard_car" route="S_N_2" depart="448" departLane="random" departSpeed="10" />
    <vehicle id="W_E_110" type="standard_car" route="W_E" depart="448" departLane="random" departSpeed="10" />
    <vehicle id="S_N_2_111" type="standard_car" route="S_N_2" depart="449" departLane="random" departSpeed="10" />
    <vehicle id="N_S_2_112" type="standard_car" route="N_S_2" depart="449" departLane="random" departSpeed="10" />
    <vehicle id="W_E_113" type="standard_car" route="W_E" depart="453" departLane="random" departSpeed="10" />
    <vehicle id="W_S_114" type="standard_car" route="W_S" depart="453" departLane="random" departSpeed="10" />
    <vehicle id="S_E_115" type="standard_car" route="S_E" depart="453" departLane="random" departSpeed="10" />
    <vehicle id="E_W_116" type="standard_car" route="E_W" depart="461" departLane="random" departSpeed="10" />
    <vehicle id="W_S_117" type="standard_car" route="W_S" depart="464" departLane="random" departSpeed="10" />
    <vehicle id="N_S_2_118" type="standard_car" route="N_S_2" depart="468" departLane="random" departSpeed="10" />
    <vehicle id="N_W_119" type="standard_car" route="N_W" depart="469" departLane="random" departSpeed="10" />
    <vehicle id="E_W_120" type="standard_car" route="E_W" depart="472" departLane="random" departSpeed="10" />
    <vehicle id="E_W_121" type="standard_car" route="E_W" depart="474" departLane="random" departSpeed="10" />
    <vehicle id="E_W_122" type="standard_car" route="E_W" depart="474" departLane="random" departSpeed="10" />
    <vehicle id="N_S_2_123" type="standard_car" route="N_S_2" depart="475" departLane="random" departSpeed="10" />
    <vehicle id="E_N_124" type="standard_car" route="E_N" depart="476" departLane="random" departSpeed="10" />
    <vehicle id="N_S_1_125" type="standard_car" route="N_S_1" depart="476" departLane="random" departSpeed="10" />
    <vehicle id="N_S_2_126" type="standard_car" route="N_S_2" depart="480" departLane="random" departSpeed="10" />
    <vehicle id="S_N_2_127" type="standard_car" route="S_N_2" depart="481" departLane="random" departSpeed="10" />
    <vehicle id="E_W_128" type="standard_car" route="E_W" depart="481" departLane="random" departSpeed="10" />
    <vehicle id="S_E_129" type="standard_car" route="S_E" depart="482" departLane="random" departSpeed="10" />
    <vehicle id="W_S_130" type="standard_car" route="W_S" depart="489" departLane="random" departSpeed="10" />
    <vehicle id="S_N_2_131" type="standard_car" route="S_N_2" depart="489" departLane="random" departSpeed="10" />
    <vehicle id="E_N_132" type="standard_car" route="E_N" depart="489" departLane="random" departSpeed="10" />
    <vehicle id="E_W_133" type="standard_car" route="E_W" depart="492" departLane="random" departSpeed="10" />
    <vehicle id="N_S_2_134" type="standard_car" route="N_S_2" depart="492" departLane="random" departSpeed="10" />
    <vehicle id="E_W_135" type="standard_car" route="E_W" depart="493" departLane="random" departSpeed="10" />
    <vehicle id="N_S_1_136" type="standard_car" route="N_S_1" depart="494" departLane="random" departSpeed="10" />
    <vehicle id="E_W_137" type="standard_car" route="E_W" depart="497" departLane="random" departSpeed="10" />
    <vehicle id="N_W_138" type="standard_car" route="N_W" depart="501" departLane="random" departSpeed="10" />
    <vehicle id="N_S_1_139" type="standard_car" route="N_S_1" depart="502" departLane="random" departSpeed="10" />
    <vehicle id="N_W_140" type="standard_car" route="N_W" depart="502" departLane="random" departSpeed="10" />
    <vehicle id="N_S_1_141" type="standard_car" route="N_S_1" depart="503" departLane="random" departSpeed="10" />
    <vehicle id="N_S_2_142" type="standard_car" route="N_S_2" depart="510" departLane="random" departSpeed="10" />
    <vehicle id="N_S_2_143" type="standard_car" route="N_S_2" depart="511" departLane="random" departSpeed="10" />
    <vehicle id="S_E_144" type="standard_car" route="S_E" depart="513" departLane="random" departSpeed="10" />
    <vehicle id="W_S_145" type="standard_car" route="W_S" depart="513" departLane="random" departSpeed="10" />
    <vehicle id="N_S_1_146" type="standard_car" route="N_S_1" depart="514" departLane="random" departSpeed="10" />
    <vehicle id="W_E_147" type="standard_car" route="W_E" depart="514" departLane="random" departSpeed="10" />
    <vehicle id="N_W_148" type="standard_car" route="N_W" depart="516" departLane="random" departSpeed="10" />
    <vehicle id="S_E_149" type="standard_car" route="S_E" depart="517" departLane="random" departSpeed="10" />
    <vehicle id="N_W_150" type="standard_car" route="N_W" depart="519" departLane="random" departSpeed="10" />
    <vehicle id="N_S_2_151" type="standard_car" route="N_S_2" depart="522" departLane="random" departSpeed="10" />
    <vehicle id="N_S_1_152" type="standard_car" route="N_S_1" depart="524" departLane="random" departSpeed="10" />
    <vehicle id="S_E_153" type="standard_car" route="S_E" depart="525" departLane="random" departSpeed="10" />
    <vehicle id="N_W_154" type="standard_car" route="N_W" depart="525" departLane="random" departSpeed="10" />
    <vehicle id="N_S_1_155" type="standard_car" route="N_S_1" depart="527" departLane="random" departSpeed="10" />
    <vehicle id="S_N_2_156" type="standard_car" route="S_N_2" depart="529" departLane="random" departSpeed="10" />
    <vehicle id="S_E_157" type="standard_car" route="S_E" depart="530" departLane="random" departSpeed="10" />
    <vehicle id="W_E_158" type="standard_car" route="W_E" depart="532" departLane="random" departSpeed="10" />
    <vehicle id="N_S_1_159" type="standard_car" route="N_S_1" depart="533" departLane="random" departSpeed="10" />
    <vehicle id="S_N_2_160" type="standard_car" route="S_N_2" depart="537" departLane="random" departSpeed="10" />
    <vehicle id="N_S_1_161" type="standard_car" route="N_S_1" depart="538" departLane="random" departSpeed="10" />
    <vehicle id="S_E_162" type="standard_car" route="S_E" depart="540" departLane="random" departSpeed="10" />
    <vehicle id="N_S_2_163" type="standard_car" route="N_S_2" depart="541" departLane="random" departSpeed="10" />
    <vehicle id="S_N_1_164" type="standard_car" route="S_N_1" depart="544" departLane="random" departSpeed="10" />
    <vehicle id="N_S_1_165" type="standard_car" route="N_S_1" depart="547" departLane="random" departSpeed="10" />
    <vehicle id="S_N_2_166" type="standard_car" route="S_N_2" depart="554" departLane="random" departSpeed="10" />
    <vehicle id="E_W_167" type="standard_car" route="E_W" depart="555" departLane="random" departSpeed="10" />
    <vehicle id="W_E_168" type="standard_car" route="W_E" depart="557" departLane="random" departSpeed="10" />
    <vehicle id="S_N_1_169" type="standard_car" route="S_N_1" depart="557" departLane="random" departSpeed="10" />
    <vehicle id="S_N_1_170" type="standard_car" route="S_N_1" depart="560" departLane="random" departSpeed="10" />
    <vehicle id="S_E_171" type="standard_car" route="S_E" depart="561" departLane="random" departSpeed="10" />
    <vehicle id="N_S_1_172" type="standard_car" route="N_S_1" depart="566" departLane="random" departSpeed="10" />
    <vehicle id="W_E_173" type="standard_car" route="W_E" depart="568" departLane="random" departSpeed="10" />
    <vehicle id="N_W_174" type="standard_car" route="N_W" depart="568" departLane="random" departSpeed="10" />
    <vehicle id="W_E_175" type="standard_car" route="W_E" depart="568" departLane="random" departSpeed="10" />
    <vehicle id="S_N_1_176" type="standard_car" route="S_N_1" depart="569" departLane="random" departSpeed="10" />
    <vehicle id="S_E_177" type="standard_car" route="S_E" depart="569" departLane="random" departSpeed="10" />
    <vehicle id="N_S_2_178" type="standard_car" route="N_S_2" depart="569" departLane="random" departSpeed="10" />
    <vehicle id="E_W_179" type="standard_car" route="E_W" depart="570" departLane="random" departSpeed="10" />
    <vehicle id="W_E_180" type="standard_car" route="W_E" depart="571" departLane="random" departSpeed="10" />
    <vehicle id="E_W_181" type="standard_car" route="E_W" depart="576" departLane="random" departSpeed="10" />
    <vehicle id="W_S_182" type="standard_car" route="W_S" depart="576" departLane="random" departSpeed="10" />
    <vehicle id="N_S_1_183" type="standard_car" route="N_S_1" depart="576" departLane="random" departSpeed="10" />
    <vehicle id="E_W_184" type="standard_car" route="E_W" depart="579" departLane="random" departSpeed="10" />
    <vehicle id="N_S_2_185" type="standard_car" route="N_S_2" depart="581" departLane="random" departSpeed="10" />
    <vehicle id="N_S_2_186" type="standard_car" route="N_S_2" depart="581" departLane="random" departSpeed="10" />
    <vehicle id="N_S_1_187" type="standard_car" route="N_S_1" depart="587" departLane="random" departSpeed="10" />
    <vehicle id="N_W_188" type="standard_car" route="N_W" depart="595" departLane="random" departSpeed="10" />
    <vehicle id="S_N_1_189" type="standard_car" route="S_N_1" depart="598" departLane="random" departSpeed="10" />
    <vehicle id="S_N_2_190" type="standard_car" route="S_N_2" depart="601" departLane="random" departSpeed="10" />
    <vehicle id="E_W_191" type="standard_car" route="E_W" depart="601" departLane="random" departSpeed="10" />
    <vehicle id="S_N_1_192" type="standard_car" route="S_N_1" depart="602" departLane="random" departSpeed="10" />
    <vehicle id="E_W_193" type="standard_car" route="E_W" depart="603" departLane="random" departSpeed="10" />
    <vehicle id="S_N_1_194" type="standard_car" route="S_N_1" depart="603" departLane="random" departSpeed="10" />
    <vehicle id="N_S_2_195" type="standard_car" route="N_S_2" depart="606" departLane="random" departSpeed="10" />
    <vehicle id="E_W_196" type="standard_car" route="E_W" depart="607" departLane="random" departSpeed="10" />
    <vehicle id="S_N_1_197" type="standard_car" route="S_N_1" depart="607" departLane="random" departSpeed="10" />
    <vehicle id="W_E_198" type="standard_car" route="W_E" depart="610" departLane="random" departSpeed="10" />
    <vehicle id="N_W_199" type="standard_car" route="N_W" depart="613" departLane="random" departSpeed="10" />
    <vehicle id="W_S_200" type="standard_car" route="W_S" depart="614" departLane="random" departSpeed="10" />
    <vehicle id="W_E_201" type="standard_car" route="W_E" depart="615" departLane="random" departSpeed="10" />
    <vehicle id="W_S_202" type="standard_car" route="W_S" depart="617" departLane="random" departSpeed="10" />
    <vehicle id="N_S_1_203" type="standard_car" route="N_S_1" depart="617" departLane="random" departSpeed="10" />
    <vehicle id="S_N_2_204" type="standard_car" route="S_N_2" depart="618" departLane="random" departSpeed="10" />
    <vehicle id="N_S_2_205" type="standard_car" route="N_S_2" depart="619" departLane="random" departSpeed="10" />
    <vehicle id="N_S_2_206" type="standard_car" route="N_S_2" depart="619" departLane="random" departSpeed="10" />
    <vehicle id="E_W_207" type="standard_car" route="E_W" depart="620" departLane="random" departSpeed="10" />
    <vehicle id="W_E_208" type="standard_car" route="W_E" depart="623" departLane="random" departSpeed="10" />
    <vehicle id="W_S_209" type="standard_car" route="W_S" depart="624" departLane="random" departSpeed="10" />
    <vehicle id="E_W_210" type="standard_car" route="E_W" depart="625" departLane="random" departSpeed="10" />
    <vehicle id="W_S_211" type="standard_car" route="W_S" depart="625" departLane="random" departSpeed="10" />
    <vehicle id="S_N_2_212" type="standard_car" route="S_N_2" depart="626" departLane="random" departSpeed="10" />
    <vehicle id="N_W_213" type="standard_car" route="N_W" depart="627" departLane="random" departSpeed="10" />
    <vehicle id="E_W_214" type="standard_car" route="E_W" depart="630" departLane="random" departSpeed="10" />
    <vehicle id="S_E_215" type="standard_car" route="S_E" depart="633" departLane="random" departSpeed="10" />
    <vehicle id="S_N_2_216" type="standard_car" route="S_N_2" depart="636" departLane="random" departSpeed="10" />
    <vehicle id="S_N_2_217" type="standard_car" route="S_N_2" depart="637" departLane="random" departSpeed="10" />
    <vehicle id="N_S_1_218" type="standard_car" route="N_S_1" depart="638" departLane="random" departSpeed="10" />
    <vehicle id="S_N_2_219" type="standard_car" route="S_N_2" depart="639" departLane="random" departSpeed="10" />
    <vehicle id="S_N_2_220" type="standard_car" route="S_N_2" depart="642" departLane="random" departSpeed="10" />
    <vehicle id="E_W_221" type="standard_car" route="E_W" depart="642" departLane="random" departSpeed="10" />
    <vehicle id="N_S_1_222" type="standard_car" route="N_S_1" depart="643" departLane="random" departSpeed="10" />
    <vehicle id="S_N_1_223" type="standard_car" route="S_N_1" depart="644" departLane="random" departSpeed="10" />
    <vehicle id="W_E_224" type="standard_car" route="W_E" depart="644" departLane="random" departSpeed="10" />
    <vehicle id="S_E_225" type="standard_car" route="S_E" depart="646" departLane="random" departSpeed="10" />
    <vehicle id="E_W_226" type="standard_car" route="E_W" depart="647" departLane="random" departSpeed="10" />
    <vehicle id="N_W_227" type="standard_car" route="N_W" depart="654" departLane="random" departSpeed="10" />
    <vehicle id="N_W_228" type="standard_car" route="N_W" depart="654" departLane="random" departSpeed="10" />
    <vehicle id="S_N_1_229" type="standard_car" route="S_N_1" depart="654" departLane="random" departSpeed="10" />
    <vehicle id="N_S_2_230" type="standard_car" route="N_S_2" depart="656" departLane="random" departSpeed="10" />
    <vehicle id="N_S_2_231" type="standard_car" route="N_S_2" depart="658" departLane="random" departSpeed="10" />
    <vehicle id="N_W_232" type="standard_car" route="N_W" depart="661" departLane="random" departSpeed="10" />
    <vehicle id="N_S_1_233" type="standard_car" route="N_S_1" depart="663" departLane="random" departSpeed="10" />
    <vehicle id="S_E_234" type="standard_car" route="S_E" depart="664" departLane="random" departSpeed="10" />
    <vehicle id="N_S_2_235" type="standard_car" route="N_S_2" depart="666" departLane="random" departSpeed="10" />
    <vehicle id="N_W_236" type="standard_car" route="N_W" depart="668" departLane="random" departSpeed="10" />
    <vehicle id="S_E_237" type="standard_car" route="S_E" depart="671" departLane="random" departSpeed="10" />
    <vehicle id="W_E_238" type="standard_car" route="W_E" depart="673" departLane="random" departSpeed="10" />
    <vehicle id="W_E_239" type="standard_car" route="W_E" depart="680" departLane="random" departSpeed="10" />
    <vehicle id="W_S_240" type="standard_car" route="W_S" depart="680" departLane="random" departSpeed="10" />
    <vehicle id="S_N_1_241" type="standard_car" route="S_N_1" depart="680" departLane="random" departSpeed="10" />
    <vehicle id="E_W_242" type="standard_car" route="E_W" depart="681" departLane="random" departSpeed="10" />
    <vehicle id="S_N_1_243" type="standard_car" route="S_N_1" depart="681" departLane="random" departSpeed="10" />
    <vehicle id="N_W_244" type="standard_car" route="N_W" depart="682" departLane="random" departSpeed="10" />
    <vehicle id="E_W_245" type="standard_car" route="E_W" depart="682" departLane="random" departSpeed="10" />
    <vehicle id="N_S_1_246" type="standard_car" route="N_S_1" depart="684" departLane="random" departSpeed="10" />
    <vehicle id="N_W_247" type="standard_car" route="N_W" depart="685" departLane="random" departSpeed="10" />
    <vehicle id="S_N_1_248" type="standard_car" route="S_N_1" depart="687" departLane="random" departSpeed="10" />
    <vehicle id="E_W_249" type="standard_car" route="E_W" depart="690" departLane="random" departSpeed="10" />
    <vehicle id="N_S_2_250" type="standard_car" route="N_S_2" depart="691" departLane="random" departSpeed="10" />
    <vehicle id="S_N_2_251" type="standard_car" route="S_N_2" depart="693" departLane="random" departSpeed="10" />
    <vehicle id="N_S_2_252" type="standard_car" route="N_S_2" depart="693" departLane="random" departSpeed="10" />
    <vehicle id="E_N_253" type="standard_car" route="E_N" depart="696" departLane="random" departSpeed="10" />
    <vehicle id="W_S_254" type="standard_car" route="W_S" depart="702" departLane="random" departSpeed="10" />
    <vehicle id="W_S_255" type="standard_car" route="W_S" depart="703" departLane="random" departSpeed="10" />
    <vehicle id="S_N_2_256" type="standard_car" route="S_N_2" depart="704" departLane="random" departSpeed="10" />
    <vehicle id="W_E_257" type="standard_car" route="W_E" depart="705" departLane="random" departSpeed="10" />
    <vehicle id="N_W_258" type="standard_car" route="N_W" depart="705" departLane="random" departSpeed="10" />
    <vehicle id="N_S_2_259" type="standard_car" route="N_S_2" depart="706" departLane="random" departSpeed="10" />