<routes>
            <vType id="emergency" accel="3.0" decel="6.0" color="1,0,0" maxSpeed="20" sigma="0.5" emergency="true" />
            <vType id="standard_car" accel="1.0" decel="4.5" length="5.0" minGap="2.5" maxSpeed="25" sigma="0.5" />
            <route id="E_W" edges="2_E2TL 2_TL2W TL2W" />
            <route id="W_E" edges="W2TL TL2E 2_TL2E" />
            <route id="N_S_1" edges="2_N2TL 2_TL2S" />
            <route id="N_S_2" edges="N2TL TL2S" />
            <route id="S_N_1" edges="S2TL TL2N" />
            <route id="S_N_2" edges="2_S2TL 2_TL2N" />
            <route id="N_W" edges="2_N2TL 2_TL2W" />
            <route id="S_E" edges="S2TL TL2E" />
            <route id="E_N" edges="2_E2TL 2_TL2N" />
            <route id="W_S" edges="W2TL TL2E 2_TL2S" />
    <vehicle id="N_W_0" type="standard_car" route="N_W" depart="48" departLane="random" departSpeed="10" />
    <vehicle id="N_S_2_1" type="standard_car" route="N_S_2" depart="55" departLane="random" departSpeed="10" />
    <vehicle id="E_W_2" type="standard_car" route="E_W" depart="57" departLane="random" departSpeed="10" />
    <vehicle id="S_N_2_3" type="standard_car" route="S_N_2" depart="63" departLane="random" departSpeed="10" />
    <vehicle id="W_S_4" type="standard_car" route="W_S" depart="95" departLane="random" departSpeed="10" />
    <vehicle id="W_E_5" type="standard_car" route="W_E" depart="96" departLane="random" departSpeed="10" />
    <vehicle id="S_N_1_6" type="standard_car" route="S_N_1" depart="116" departLane="random" departSpeed="10" />
    <vehicle id="N_S_1_7" type="standard_car" route="N_S_1" depart="123" departLane="random" departSpeed="10" />
    <vehicle id="E_N_8" type="standard_car" route="E_N" depart="123" departLane="random" departSpeed="10" />
    <vehicle id="S_E_9" type="standard_car" route="S_E" depart="139" departLane="random" departSpeed="10" />
    <vehicle id="W_S_10" type="standard_car" route="W_S" depart="141" departLane="random" departSpeed="10" />
    <vehicle id="S_E_11" type="standard_car" route="S_E" depart="154" departLane="random" departSpeed="10" />
    <vehicle id="S_N_1_12" type="standard_car" route="S_N_1" depart="156" departLane="random" departSpeed="10" />
    <vehicle id="E_N_13" type="standard_car" route="E_N" depart="160" departLane="random" departSpeed="10" />
    <vehicle id="S_N_2_14" type="standard_car" route="S_N_2" depart="163" departLane="random" departSpeed="10" />
    <vehicle id="W_E_15" type="standard_car" route="W_E" depart="174" departLane="random" departSpeed="10" />
    <vehicle id="S_N_2_16" type="standard_car" route="S_N_2" depart="176" departLane="random" departSpeed="10" />
    <vehicle id="W_S_17" type="standard_car" route="W_S" depart="180" departLane="random" departSpeed="10" />
    <vehicle id="S_E_18" type="standard_car" route="S_E" depart="183" departLane="random" departSpeed="10" />
    <vehicle id="S_N_1_19" type="standard_car" route="S_N_1" depart="191" departLane="random" departSpeed="10" />
    <vehicle id="S_N_1_20" type="standard_car" route="S_N_1" depart="194" departLane="random" departSpeed="10" />
    <vehicle id="N_S_1_21" type="standard_car" route="N_S_1" depart="196" departLane="random" departSpeed="10" />
    <vehicle id="E_W_22" type="standard_car" route="E_W" depart="201" departLane="random" departSpeed="10" />
    <vehicle id="N_S_1_23" type="standard_car" route="N_S_1" depart="209" departLane="random" departSpeed="10" />
    <vehicle id="S_N_1_24" type="standard_car" route="S_N_1" depart="211" departLane="random" departSpeed="10" />
    <vehicle id="N_W_25" type="standard_car" route="N_W" depart="212" departLane="random" departSpeed="10" />
    <vehicle id="W_E_26" type="standard_car" route="W_E" depart="215" departLane="random" departSpeed="10" />
    <vehicle id="E_N_27" type="standard_car" route="E_N" depart="217" departLane="random" departSpeed="10" />
    <vehicle id="E_N_28" type="standard_car" route="E_N" depart="218" departLane="random" departSpeed="10" />
    <vehicle id="N_W_29" type="standard_car" route="N_W" depart="219" departLane="random" departSpeed="10" />
    <vehicle id="N_W_30" type="standard_car" route="N_W" depart="222" departLane="random" departSpeed="10" />
    <vehicle id="W_E_31" type="standard_car" route="W_E" depart="225" departLane="random" departSpeed="10" />
    <vehicle id="N_W_32" type="standard_car" route="N_W" depart="226" departLane="random" departSpeed="10" />
    <vehicle id="N_S_2_33" type="standard_car" route="N_S_2" depart="233" departLane="random" departSpeed="10" />
    <vehicle id="S_N_1_34" type="standard_car" route="S_N_1" depart="235" departLane="random" departSpeed="10" />
    <vehicle id="E_N_35" type="standard_car" route="E_N" depart="236" departLane="random" departSpeed="10" />
    <vehicle id="E_W_36" type="standard_car" route="E_W" depart="237" departLane="random" departSpeed="10" />
    <vehicle id="N_S_1_37" type="standard_car" route="N_S_1" depart="240" departLane="random" departSpeed="10" />
    <vehicle id="N_W_38" type="standard_car" route="N_W" depart="242" departLane="random" departSpeed="10" />
    <vehicle id="W_S_39" type="standard_car" route="W_S" depart="243" departLane="random" departSpeed="10" />
    <vehicle id="S_E_40" type="standard_car" route="S_E" depart="246" departLane="random" departSpeed="10" />
    <vehicle id="E_W_41" type="standard_car" route="E_W" depart="249" departLane="random" departSpeed="10" />
    <vehicle id="S_E_42" type="standard_car" route="S_E" depart="251" departLane="random" departSpeed="10" />
    <vehicle id="S_N_2_43" type="standard_car" route="S_N_2" depart="254" departLane="random" departSpeed="10" />
    <vehicle id="E_W_44" type="standard_car" route="E_W" depart="258" departLane="random" departSpeed="10" />
    <vehicle id="W_E_45" type="standard_car" route="W_E" depart="258" departLane="random" departSpeed="10" />
    <vehicle id="S_N_2_46" type="standard_car" route="S_N_2" depart="259" departLane="random" departSpeed="10" />
    <vehicle id="E_W_47" type="standard_car" route="E_W" depart="260" departLane="random" departSpeed="10" />
    <vehicle id="E_N_48" type="standard_car" route="E_N" depart="270" departLane="random" departSpeed="10" />
    <vehicle id="N_S_1_49" type="standard_car" route="N_S_1" depart="272" departLane="random" departSpeed="10" />
    <vehicle id="E_N_50" type="standard_car" route="E_N" depart="274" departLane="random" departSpeed="10" />
    <vehicle id="N_S_1_51" type="standard_car" route="N_S_1" depart="275" departLane="random" departSpeed="10" />
    <vehicle id="E_W_52" type="standard_car" route="E_W" depart="277" departLane="random" departSpeed="10" />
    <vehicle id="E_W_53" type="standard_car" route="E_W" depart="277" departLane="random" departSpeed="10" />
    <vehicle id="W_E_54" type="standard_car" route="W_E" depart="277" departLane="random" departSpeed="10" />
    <vehicle id="S_N_1_55" type="standard_car" route="S_N_1" depart="280" departLane="random" departSpeed="10" />
    <vehicle id="S_N_1_56" type="standard_car" route="S_N_1" depart="282" departLane="random" departSpeed="10" />
    <vehicle id="W_E_57" type="standard_car" route="W_E" depart="283" departLane="random" departSpeed="10" />
    <vehicle id="N_W_58" type="standard_car" route="N_W" depart="283" departLane="random" departSpeed="10" />
    <vehicle id="S_N_2_59" type="standard_car" route="S_N_2" depart="284" departLane="random" departSpeed="10" />
    <vehicle id="E_N_60" type="standard_car" route="E_N" depart="286" departLane="random" departSpeed="10" />
    <vehicle id="S_E_61" type="standard_car" route="S_E" depart="288" departLane="random" departSpeed="10" />
    <vehicle id="E_W_62" type="standard_car" route="E_W" depart="289" departLane="random" departSpeed="10" />
    <vehicle id="W_S_63" type="standard_car" route="W_S" depart="291" departLane="random" departSpeed="10" />
    <vehicle id="E_W_64" type="standard_car" route="E_W" depart="299" departLane="random" departSpeed="10" />
    <vehicle id="E_W_65" type="standard_car" route="E_W" depart="304" departLane="random" departSpeed="10" />
    <vehicle id="N_S_1_66" type="standard_car" route="N_S_1" depart="305" departLane="random" departSpeed="10" />
    <vehicle id="E_W_67" type="standard_car" route="E_W" depart="307" departLane="random" departSpeed="10" />
    <vehicle id="S_N_2_68" type="standard_car" route="S_N_2" depart="313" departLane="random" departSpeed="10" />
    <vehicle id="N_S_1_69" type="standard_car" route="N_S_1" depart="318" departLane="random" departSpeed="10" />
    <vehicle id="E_W_70" type="standard_car" route="E_W" depart="320" departLane="random" departSpeed="10" />
    <vehicle id="N_S_2_71" type="standard_car" route="N_S_2" depart="320" departLane="random" departSpeed="10" />
    <vehicle id="N_S_1_72" type="standard_car" route="N_S_1" depart="321" departLane="random" departSpeed="10" />
    <vehicle id="S_N_2_73" type="standard_car" route="S_N_2" depart="323" departLane="random" departSpeed="10" />
    <vehicle id="S_N_2_74" type="standard_car" route="S_N_2" depart="325" departLane="random" departSpeed="10" />
    <vehicle id="N_S_1_75" type="standard_car" route="N_S_1" depart="327" departLane="random" departSpeed="10" />
    <vehicle id="N_S_2_76" type="standard_car" route="N_S_2" depart="328" departLane="random" departSpeed="10" />
    <vehicle id="E_W_77" type="standard_car" route="E_W" depart="330" departLane="random" departSpeed="10" />
    <vehicle id="W_S_78" type="standard_car" route="W_S" depart="333" departLane="random" departSpeed="10" />
    <vehicle id="W_E_79" type="standard_car" route="W_E" depart="334" departLane="random" departSpeed="10" />
    <vehicle id="N_S_1_80" type="standard_car" route="N_S_1" depart="335" departLane="random" departSpeed="10" />
    <vehicle id="N_W_81" type="standard_car" route="N_W" depart="338" departLane="random" departSpeed="10" />
    <vehicle id="N_S_1_82" type="standard_car" route="N_S_1" depart="339" departLane="random" departSpeed="10" />
    <vehicle id="E_N_83" type="standard_car" route="E_N" depart="339" departLane="random" departSpeed="10" />
    <vehicle id="E_N_84" type="standard_car" route="E_N" depart="345" departLane="random" departSpeed="10" />
    <vehicle id="W_S_85" type="standard_car" route="W_S" depart="346" departLane="random" departSpeed="10" />
    <vehicle id="S_N_1_86" type="standard_car" route="S_N_1" depart="346" departLane="random" departSpeed="10" />
    <vehicle id="E_N_87" type="standard_car" route="E_N" depart="348" departLane="random" departSpeed="10" />
    <vehicle id="N_S_1_88" type="standard_car" route="N_S_1" depart="350" departLane="random" departSpeed="10" />
    <vehicle id="N_S_2_89" type="standard_car" route="N_S_2" depart="352" departLane="random" departSpeed="10" />
    <vehicle id="W_E_90" type="standard_car" route="W_E" depart="353" departLane="random" departSpeed="10" />
    <vehicle id="E_N_91" type="standard_car" route="E_N" depart="353" departLane="random" departSpeed="10" />
    <vehicle id="S_N_1_92" type="standard_car" route="S_N_1" depart="356" departLane="random" departSpeed="10" />
    <vehicle id="S_N_1_93" type="standard_car" route="S_N_1" depart="360" departLane="random" departSpeed="10" />
    <vehicle id="E_N_94" type="standard_car" route="E_N" depart="361" departLane="random" departSpeed="10" />
    <vehicle id="S_N_2_95" type="standard_car" route="S_N_2" depart="361" departLane="random" departSpeed="10" />
    <vehicle id="S_N_1_96" type="standard_car" route="S_N_1" depart="362" departLane="random" departSpeed="10" />
    <vehicle id="N_S_2_97" type="standard_car" route="N_S_2" depart="368" departLane="random" departSpeed="10" />
    <vehicle id="N_S_1_98" type="standard_car" route="N_S_1" depart="370" departLane="random" departSpeed="10" />
    <vehicle id="E_N_99" type="standard_car" route="E_N" depart="370" departLane="random" departSpeed="10" />
    <vehicle id="S_N_1_100" type="standard_car" route="S_N_1" depart="374" departLane="random" departSpeed="10" />
    <vehicle id="N_S_2_101" type="standard_car" route="N_S_2" depart="374" departLane="random" departSpeed="10" />
    <vehicle id="E_W_102" type="standard_car" route="E_W" depart="375" departLane="random" departSpeed="10" />
    <vehicle id="W_E_103" type="standard_car" route="W_E" depart="375" departLane="random" departSpeed="10" />
    <vehicle id="N_W_104" type="standard_car" route="N_W" depart="379" departLane="random" departSpeed="10" />
    <vehicle id="E_W_105" type="standard_car" route="E_W" depart="381" departLane="random" departSpeed="10" />
    <vehicle id="N_W_106" type="standard_car" route="N_W" depart="383" departLane="random" departSpeed="10" />
    <vehicle id="E_N_107" type="standard_car" route="E_N" depart="385" departLane="random" departSpeed="10" />
    <vehicle id="N_S_1_108" type="standard_car" route="N_S_1" depart="389" departLane="random" departSpeed="10" />
    <vehicle id="E_N_109" type="standard_car" route="E_N" depart="389" departLane="random" departSpeed="10" />
    <vehicle id="N_S_2_110" type="standard_car" route="N_S_2" depart="390" departLane="random" departSpeed="10" />
    <vehicle id="S_N_2_111" type="standard_car" route="S_N_2" depart="393" departLane="random" departSpeed="10" />
    <vehicle id="N_S_2_112" type="standard_car" route="N_S_2" depart="395" departLane="random" departSpeed="10" />
    <vehicle id="S_N_1_113" type="standard_car" route="S_N_1" depart="400" departLane="random" departSpeed="10" />
    <vehicle id="N_W_114" type="standard_car" route="N_W" depart="404" departLane="random" departSpeed="10" />
    <vehicle id="N_W_115" type="standard_car" route="N_W" depart="407" departLane="random" departSpeed="10" />
    <vehicle id="N_S_1_116" type="standard_car" route="N_S_1" depart="407" departLane="random" departSpeed="10" />
    <vehicle id="W_E_117" type="standard_car" route="W_E" depart="409" departLane="random" departSpeed="10" />
    <vehicle id="N_S_2_118" type="standard_car" route="N_S_2" depart="409" departLane="random" departSpeed="10" />
    <vehicle id="E_N_119" type="standard_car" route="E_N" depart="411" departLane="random" departSpeed="10" />
    <vehicle id="W_E_120" type="standard_car" route="W_E" depart="412" departLane="random" departSpeed="10" />
    <vehicle id="N_W_121" type="standard_car" route="N_W" depart="414" departLane="random" departSpeed="10" />
    <vehicle id="W_S_122" type="standard_car" route="W_S" depart="415" departLane="random" departSpeed="10" />
    <vehicle id="S_N_2_123" type="standard_car" route="S_N_2" depart="418" departLane="random" departSpeed="10" />
    <vehicle id="E_N_124" type="standard_car" route="E_N" depart="418" departLane="random" departSpeed="10" />
    <vehicle id="E_W_125" type="standard_car" route="E_W" depart="418" departLane="random" departSpeed="10" />
    <vehicle id="W_S_126" type="standard_car" route="W_S" depart="425" departLane="random" departSpeed="10" />
    <vehicle id="N_S_1_127" type="standard_car" route="N_S_1" depart="425" departLane="random" departSpeed="10" />
    <vehicle id="N_S_2_128" type="standard_car" route="N_S_2" depart="428" departLane="random" departSpeed="10" />
    <vehicle id="W_E_129" type="standard_car" route="W_E" depart="429" departLane="random" departSpeed="10" />
    <vehicle id="S_E_130" type="standard_car" route="S_E" depart="433" departLane="random" departSpeed="10" />
    <vehicle id="W_E_131" type="standard_car" route="W_E" depart="434" departLane="random" departSpeed="10" />
    <vehicle id="E_W_132" type="standard_car" route="E_W" depart="434" departLane="random" departSpeed="10" />
    <vehicle id="N_S_2_133" type="standard_car" route="N_S_2" depart="434" departLane="random" departSpeed="10" />
    <vehicle id="N_S_1_134" type="standard_car" route="N_S_1" depart="437" departLane="random" departSpeed="10" />
    <vehicle id="S_E_135" type="standard_car" route="S_E" depart="439" departLane="random" departSpeed="10" />
    <vehicle id="N_S_1_136" type="standard_car" route="N_S_1" depart="440" departLane="random" departSpeed="10" />
    <vehicle id="N_S_2_137" type="standard_car" route="N_S_2" depart="442" departLane="random" departSpeed="10" />
    <vehicle id="W_E_138" type="standard_car" route="W_E" depart="443" departLane="random" departSpeed="10" />
    <vehicle id="E_W_139" type="standard_car" route="E_W" depart="443" departLane="random" departSpeed="10" />
    <vehicle id="S_N_1_140" type="standard_car" route="S_N_1" depart="446" departLane="random" departSpeed="10" />
    <vehicle id="S_N_2_141" type="standard_car" route="S_N_2" depart="446" departLane="random" departSpeed="10" />
    <vehicle id="N_S_2_142" type="standard_car" route="N_S_2" depart="447" departLane="random" departSpeed="10" />
    <vehicle id="S_N_1_143" type="standard_car" route="S_N_1" depart="451" departLane="random" departSpeed="10" />
    <vehicle id="W_E_144" type="standard_car" route="W_E" depart="454" departLane="random" departSpeed="10" />
    <vehicle id="S_N_1_145" type="standard_car" route="S_N_1" depart="456" departLane="random" departSpeed="10" />
    <vehicle id="S_E_146" type="standard_car" route="S_E" depart="457" departLane="random" departSpeed="10" />
    <vehicle id="E_W_147" type="standard_car" route="E_W" depart="462" departLane="random" departSpeed="10" />
    <vehicle id="E_W_148" type="standard_car" route="E_W" depart="463" departLane="random" departSpeed="10" />
    <vehicle id="N_S_2_149" type="standard_car" route="N_S_2" depart="465" departLane="random" departSpeed="10" />
    <vehicle id="E_W_150" type="standard_car" route="E_W" depart="467" departLane="random" departSpeed="10" />
    <vehicle id="E_W_151" type="standard_car" route="E_W" depart="470" departLane="random" departSpeed="10" />
    <vehicle id="N_S_2_152" type="standard_car" route="N_S_2" depart="472" departLane="random" departSpeed="10" />
    <vehicle id="E_N_153" type="standard_car" route="E_N" depart="475" departLane="random" departSpeed="10" />
    <vehicle id="S_N_1_154" type="standard_car" route="S_N_1" depart="481" departLane="random" departSpeed="10" />
    <vehicle id="W_E_155" type="standard_car" route="W_E" depart="481" departLane="random" departSpeed="10" />
    <vehicle id="S_N_2_156" type="standard_car" route="S_N_2" depart="482" departLane="random" departSpeed="10" />
    <vehicle id="N_W_157" type="standard_car" route="N_W" depart="491" departLane="random" departSpeed="10" />
    <vehicle id="N_S_1_158" type="standard_car" route="N_S_1" depart="492" departLane="random" departSpeed="10" />
    <vehicle id="W_E_159" type="standard_car" route="W_E" depart="493" departLane="random" departSpeed="10" />
    <vehicle id="N_S_1_160" type="standard_car" route="N_S_1" depart="494" departLane="random" departSpeed="10" />
    <vehicle id="S_N_2_161" type="standard_car" route="S_N_2" depart="494" departLane="random" departSpeed="10" />
    <vehicle id="W_S_162" type="standard_car" route="W_S" depart="495" departLane="random" departSpeed="10" />
    <vehicle id="E_N_163" type="standard_car" route="E_N" depart="495" departLane="random" departSpeed="10" />
    <vehicle id="W_S_164" type="standard_car" route="W_S" depart="496" departLane="random" departSpeed="10" />
    <vehicle id="E_W_165" type="standard_car" route="E_W" depart="501" departLane="random" departSpeed="10" />
    <vehicle id="W_E_166" type="standard_car" route="W_E" depart="501" departLane="random" departSpeed="10" />
    <vehicle id="S_N_1_167" type="standard_car" route="S_N_1" depart="501" departLane="random" departSpeed="10" />
    <vehicle id="E_W_168" type="standard_car" route="E_W" depart="502" departLane="random" departSpeed="10" />
    <vehicle id="S_N_1_169" type="standard_car" route="S_N_1" depart="502" departLane="random" departSpeed="10" />
    <vehicle id="S_N_1_170" type="standard_car" route="S_N_1" depart="506" departLane="random" departSpeed="10" />
    <vehicle id="S_N_1_171" type="standard_car" route="S_N_1" depart="506" departLane="random" departSpeed="10" />
    <vehicle id="N_S_1_172" type="standard_car" route="N_S_1" depart="524" departLane="random" departSpeed="10" />
    <vehicle id="S_N_2_173" type="standard_car" route="S_N_2" depart="527" departLane="random" departSpeed="10" />
    <vehicle id="S_E_174" type="standard_car" route="S_E" depart="528" departLane="random" departSpeed="10" />
    <vehicle id="E_W_175" type="standard_car" route="E_W" depart="531" departLane="random" departSpeed="10" />
    <vehicle id="N_W_176" type="standard_car" route="N_W" depart="532" departLane="random" departSpeed="10" />
    <vehicle id="W_S_177" type="standard_car" route="W_S" depart="532" departLane="random" departSpeed="10" />
    <vehicle id="N_S_2_178" type="standard_car" route="N_S_2" depart="532" departLane="random" departSpeed="10" />
    <vehicle id="S_N_2_179" type="standard_car" route="S_N_2" depart="534" departLane="random" departSpeed="10" />
    <vehicle id="S_N_1_180" type="standard_car" route="S_N_1" depart="534" departLane="random" departSpeed="10" />
    <vehicle id="S_N_1_181" type="standard_car" route="S_N_1" depart="534" departLane="random" departSpeed="10" />
    <vehicle id="E_W_182" type="standard_car" route="E_W" depart="537" departLane="random" departSpeed="10" />
    <vehicle id="S_N_1_183" type="standard_car" route="S_N_1" depart="541" departLane="random" departSpeed="10" />
    <vehicle id="N_S_2_184" type="standard_car" route="N_S_2" depart="542" departLane="random" departSpeed="10" />
    <vehicle id="S_N_2_185" type="standard_car" route="S_N_2" depart="543" departLane="random" departSpeed="10" />
    <vehicle id="S_N_1_186" type="standard_car" route="S_N_1" depart="544" departLane="random" departSpeed="10" />
    <vehicle id="N_S_2_187" type="standard_car" route="N_S_2" depart="549" departLane="random" departSpeed="10" />
    <vehicle id="W_S_188" type="standard_car" route="W_S" depart="550" departLane="random" departSpeed="10" />
    <vehicle id="E_W_189" type="standard_car" route="E_W" depart="551" departLane="random" departSpeed="10" />
    <vehicle id="W_S_190" type="standard_car" route="W_S" depart="555" departLane="random" departSpeed="10" />
    <vehicle id="E_N_191" type="standard_car" route="E_N" depart="556" departLane="random" departSpeed="10" />
    <vehicle id="W_E_192" type="standard_car" route="W_E" depart="556" departLane="random" departSpeed="10" />
    <vehicle id="S_N_1_193" type="standard_car" route="S_N_1" depart="558" departLane="random" departSpeed="10" />
    <vehicle id="S_N_1_194" type="standard_car" route="S_N_1" depart="558" departLane="random" departSpeed="10" />
    <vehicle id="S_N_1_195" type="standard_car" route="S_N_1" depart="559" departLane="random" departSpeed="10" />
    <vehicle id="W_S_196" type="standard_car" route="W_S" depart="561" departLane="random" departSpeed="10" />
    <vehicle id="S_N_1_197" type="standard_car" route="S_N_1" depart="564" departLane="random" departSpeed="10" />
    <vehicle id="N_S_2_198" type="standard_car" route="N_S_2" depart="567" departLane="random" departSpeed="10" />
    <vehicle id="S_N_2_199" type="standard_car" route="S_N_2" depart="567" departLane="random" departSpeed="10" />
    <vehicle id="N_W_200" type="standard_car" route="N_W" depart="571" departLane="random" departSpeed="10" />
    <vehicle id="E_N_201" type="standard_car" route="E_N" depart="572" departLane="random" departSpeed="10" />
    <vehicle id="E_W_202" type="standard_car" route="E_W" depart="574" departLane="random" departSpeed="10" />
    <vehicle id="W_E_203" type="standard_car" route="W_E" depart="575" departLane="random" departSpeed="10" />
    <vehicle id="E_W_204" type="standard_car" route="E_W" depart="575" departLane="random" departSpeed="10" />
    <vehicle id="S_E_205" type="standard_car" route="S_E" depart="579" departLane="random" departSpeed="10" />
    <vehicle id="N_S_1_206" type="standard_car" route="N_S_1" depart="579" departLane="random" departSpeed="10" />
    <vehicle id="N_S_1_207" type="standard_car" route="N_S_1" depart="580" departLane="random" departSpeed="10" />
    <vehicle id="E_W_208" type="standard_car" route="E_W" depart="583" departLane="random" departSpeed="10" />
    <vehicle id="W_E_209" type="standard_car" route="W_E" depart="586" departLane="random" departSpeed="10" />
    <vehicle id="S_N_2_210" type="standard_car" route="S_N_2" depart="587" departLane="random" departSpeed="10" />
    <vehicle id="S_N_2_211" type="standard_car" route="S_N_2" depart="588" departLane="random" departSpeed="10" />
    <vehicle id="W_E_212" type="standard_car" route="W_E" depart="589" departLane="random" departSpeed="10" />
    <vehicle id="W_E_213" type="standard_car" route="W_E" depart="590" departLane="random" departSpeed="10" />
    <vehicle id="W_E_214" type="standard_car" route="W_E" depart="591" departLane="random" departSpeed="10" />
    <vehicle id="N_W_215" type="standard_car" route="N_W" depart="592" departLane="random" departSpeed="10" />
    <vehicle id="S_E_216" type="standard_car" route="S_E" depart="594" departLane="random" departSpeed="10" />
    <vehicle id="S_N_2_217" type="standard_car" route="S_N_2" depart="595" departLane="random" departSpeed="10" />
    <vehicle id="W_E_218" type="standard_car" route="W_E" depart="601" departLane="random" departSpeed="10" />
    <vehicle id="S_E_219" type="standard_car" route="S_E" depart="602" departLane="random" departSpeed="10" />
    <vehicle id="N_W_220" type="standard_car" route="N_W" depart="603" departLane="random" departSpeed="10" />
    <vehicle id="N_W_221" type="standard_car" route="N_W" depart="603" departLane="random" departSpeed="10" />
    <vehicle id="E_N_222" type="standard_car" route="E_N" depart="604" departLane="random" departSpeed="10" />
    <vehicle id="S_N_2_223" type="standard_car" route="S_N_2" depart="604" departLane="random" departSpeed="10" />
    <vehicle id="S_E_224" type="standard_car" route="S_E" depart="606" departLane="random" departSpeed="10" />
    <vehicle id="N_S_2_225" type="standard_car" route="N_S_2" depart="608" departLane="random" departSpeed="10" />
    <vehicle id="W_S_226" type="standard_car" route="W_S" depart="609" departLane="random" departSpeed="10" />
    <vehicle id="S_N_1_227" type="standard_car" route="S_N_1" depart="615" departLane="random" departSpeed="10" />
    <vehicle id="N_S_2_228" type="standard_car" route="N_S_2" depart="620" departLane="random" departSpeed="10" />
    <vehicle id="W_E_229" type="standard_car" route="W_E" depart="620" departLane="random" departSpeed="10" />
    <vehicle id="E_W_230" type="standard_car" route="E_W" depart="625" departLane="random" departSpeed="10" />
    <vehicle id="N_S_2_231" type="standard_car" route="N_S_2" depart="626" departLane="random" departSpeed="10" />
    <vehicle id="N_S_2_232" type="standard_car" route="N_S_2" depart="627" departLane="random" departSpeed="10" />
    <vehicle id="N_S_1_233" type="standard_car" route="N_S_1" depart="628" departLane="random" departSpeed="10" />
    <vehicle id="W_S_234" type="standard_car" route="W_S" depart="630" departLane="random" departSpeed="10" />
    <vehicle id="W_E_235" type="standard_car" route="W_E" depart="631" departLane="random" departSpeed="10" />
    <vehicle id="N_S_1_236" type="standard_car" route="N_S_1" depart="635" departLane="random" departSpeed="10" />
    <vehicle id="E_N_237" type="standard_car" route="E_N" depart="637" departLane="random" departSpeed="10" />
    <vehicle id="S_N_2_238" type="standard_car" route="S_N_2" depart="637" departLane="random" departSpeed="10" />
    <vehicle id="N_W_239" type="standard_car" route="N_W" depart="638" departLane="random" departSpeed="10" />
    <vehicle id="S_N_1_240" type="standard_car" route="S_N_1" depart="639" departLane="random" departSpeed="10" />
    <vehicle id="N_S_2_241" type="standard_car" route="N_S_2" depart="639" departLane="random" departSpeed="10" />
    <vehicle id="W_E_242" type="standard_car" route="W_E" depart="640" departLane="random" departSpeed="10" />
    <vehicle id="N_W_243" type="standard_car" route="N_W" depart="641" departLane="random" departSpeed="10" />
    <vehicle id="N_S_2_244" type="standard_car" route="N_S_2" depart="643" departLane="random" departSpeed="10" />
    <vehicle id="W_E_245" type="standard_car" route="W_E" depart="643" departLane="random" departSpeed="10" />
    <vehicle id="S_N_2_246" type="standard_car" route="S_N_2" depart="644" departLane="random" departSpeed="10" />
    <vehicle id="S_N_2_247" type="standard_car" route="S_N_2" depart="647" departLane="random" departSpeed="10" />
    <vehicle id="S_N_2_248" type="standard_car" route="S_N_2" depart="648" departLane="random" departSpeed="10" />
    <vehicle id="N_W_249" type="standard_car" route="N_W" depart="649" departLane="random" departSpeed="10" />
    <vehicle id="W_S_250" type="standard_car" route="W_S" depart="649" departLane="random" departSpeed="10" />
    <vehicle id="S_N_2_251" type="standard_car" route="S_N_2" depart="652" departLane="random" departSpeed="10" />
    <vehicle id="E_W_252" type="standard_car" route="E_W" depart="656" departLane="random" departSpeed="10" />
    <vehicle id="S_N_2_253" type="standard_car" route="S_N_2" depart="656" departLane="random" departSpeed="10" />
    <vehicle id="S_N_2_254" type="standard_car" route="S_N_2" depart="656" departLane="random" departSpeed="10" />
    <vehicle id="N_S_2_255" type="standard_car" route="N_S_2" depart="656" departLane="random" departSpeed="10" />
    <vehicle id="S_N_2_256" type="standard_car" route="S_N_2" depart="657" departLane="random" departSpeed="10" />
    <vehicle id="S_N_2_257" type="standard_car" route="S_N_2" depart="657" departLane="random" departSpeed="10" />
    <vehicle id="N_S_1_258" type="standard_car" route="N_S_1" depart="657" departLane="random" departSpeed="10" />
    <vehicle id="W_S_259" type="standard_car" route="W_S" depart="657" departLane="random" departSpeed="10" />