<tlLogics>
    <tlLogic id="n2" type="static" programID="0" offset="0">
        <phase duration="30" state="GrGr"/>
        <phase duration="5" state="yryr"/>
        <phase duration="30" state="rGrG"/>
        <phase duration="5" state="ryry"/>
    </tlLogic>
    <tlLogic id="n3" type="static" programID="0" offset="0">
        <phase duration="30" state="GrGr"/>
        <phase duration="5" state="yryr"/>
        <phase duration="30" state="rGrG"/>
        <phase duration="5" state="ryry"/>
    </tlLogic>
</tlLogics>
