<routes>
            <vType id="emergency" accel="3.0" decel="6.0" color="1,0,0" maxSpeed="20" sigma="0.5" emergency="true" />
            <vType id="standard_car" accel="1.0" decel="4.5" length="5.0" minGap="2.5" maxSpeed="25" sigma="0.5" />
            <route id="E_W" edges="2_E2TL 2_TL2W TL2W" />
            <route id="W_E" edges="W2TL TL2E 2_TL2E" />
            <route id="N_S_1" edges="2_N2TL 2_TL2S" />
            <route id="N_S_2" edges="N2TL TL2S" />
            <route id="S_N_1" edges="S2TL TL2N" />
            <route id="S_N_2" edges="2_S2TL 2_TL2N" />
            <route id="N_W" edges="2_N2TL 2_TL2W" />
            <route id="S_E" edges="S2TL TL2E" />
            <route id="E_N" edges="2_E2TL 2_TL2N" />
            <route id="W_S" edges="W2TL TL2E 2_TL2S" />
    <vehicle id="emergency_0" type="emergency" route="N_W" depart="8" departLane="random" departSpeed="10" />
    <vehicle id="S_N_2_0" type="standard_car" route="S_N_2" depart="80" departLane="random" departSpeed="10" />
    <vehicle id="W_S_1" type="standard_car" route="W_S" depart="85" departLane="random" departSpeed="10" />
    <vehicle id="N_S_2_2" type="standard_car" route="N_S_2" depart="90" departLane="random" departSpeed="10" />
    <vehicle id="S_N_1_3" type="standard_car" route="S_N_1" depart="98" departLane="random" departSpeed="10" />
    <vehicle id="N_W_4" type="standard_car" route="N_W" depart="100" departLane="random" departSpeed="10" />
    <vehicle id="E_W_5" type="standard_car" route="E_W" depart="114" departLane="random" departSpeed="10" />
    <vehicle id="N_S_1_6" type="standard_car" route="N_S_1" depart="147" departLane="random" departSpeed="10" />
    <vehicle id="S_E_7" type="standard_car" route="S_E" depart="148" departLane="random" departSpeed="10" />
    <vehicle id="W_E_8" type="standard_car" route="W_E" depart="150" departLane="random" departSpeed="10" />
    <vehicle id="E_N_9" type="standard_car" route="E_N" depart="150" departLane="random" departSpeed="10" />
    <vehicle id="N_S_2_10" type="standard_car" route="N_S_2" depart="150" departLane="random" departSpeed="10" />
    <vehicle id="E_W_11" type="standard_car" route="E_W" depart="165" departLane="random" departSpeed="10" />
    <vehicle id="S_E_12" type="standard_car" route="S_E" depart="185" departLane="random" departSpeed="10" />
    <vehicle id="E_N_13" type="standard_car" route="E_N" depart="215" departLane="random" departSpeed="10" />
    <vehicle id="E_W_14" type="standard_car" route="E_W" depart="217" departLane="random" departSpeed="10" />
    <vehicle id="S_E_15" type="standard_car" route="S_E" depart="218" departLane="random" departSpeed="10" />
    <vehicle id="N_S_1_16" type="standard_car" route="N_S_1" depart="221" departLane="random" departSpeed="10" />
    <vehicle id="S_N_2_17" type="standard_car" route="S_N_2" depart="225" departLane="random" departSpeed="10" />
    <vehicle id="N_S_1_18" type="standard_car" route="N_S_1" depart="228" departLane="random" departSpeed="10" />
    <vehicle id="N_W_19" type="standard_car" route="N_W" depart="235" departLane="random" departSpeed="10" />
    <vehicle id="S_E_20" type="standard_car" route="S_E" depart="240" departLane="random" departSpeed="10" />
    <vehicle id="S_E_21" type="standard_car" route="S_E" depart="240" departLane="random" departSpeed="10" />
    <vehicle id="E_W_22" type="standard_car" route="E_W" depart="250" departLane="random" departSpeed="10" />
    <vehicle id="S_E_23" type="standard_car" route="S_E" depart="252" departLane="random" departSpeed="10" />
    <vehicle id="S_N_2_24" type="standard_car" route="S_N_2" depart="256" departLane="random" departSpeed="10" />
    <vehicle id="N_S_1_25" type="standard_car" route="N_S_1" depart="256" departLane="random" departSpeed="10" />
    <vehicle id="E_N_26" type="standard_car" route="E_N" depart="261" departLane="random" departSpeed="10" />
    <vehicle id="E_N_27" type="standard_car" route="E_N" depart="264" departLane="random" departSpeed="10" />
    <vehicle id="E_N_28" type="standard_car" route="E_N" depart="265" departLane="random" departSpeed="10" />
    <vehicle id="S_E_29" type="standard_car" route="S_E" depart="267" departLane="random" departSpeed="10" />
    <vehicle id="N_W_30" type="standard_car" route="N_W" depart="268" departLane="random" departSpeed="10" />
    <vehicle id="W_E_31" type="standard_car" route="W_E" depart="270" departLane="random" departSpeed="10" />
    <vehicle id="W_E_32" type="standard_car" route="W_E" depart="275" departLane="random" departSpeed="10" />
    <vehicle id="W_S_33" type="standard_car" route="W_S" depart="276" departLane="random" departSpeed="10" />
    <vehicle id="N_S_2_34" type="standard_car" route="N_S_2" depart="276" departLane="random" departSpeed="10" />
    <vehicle id="S_E_35" type="standard_car" route="S_E" depart="279" departLane="random" departSpeed="10" />
    <vehicle id="S_N_2_36" type="standard_car" route="S_N_2" depart="284" departLane="random" departSpeed="10" />
    <vehicle id="W_S_37" type="standard_car" route="W_S" depart="290" departLane="random" departSpeed="10" />
    <vehicle id="W_E_38" type="standard_car" route="W_E" depart="294" departLane="random" departSpeed="10" />
    <vehicle id="S_N_1_39" type="standard_car" route="S_N_1" depart="295" departLane="random" departSpeed="10" />
    <vehicle id="N_S_1_40" type="standard_car" route="N_S_1" depart="295" departLane="random" departSpeed="10" />
    <vehicle id="N_S_1_41" type="standard_car" route="N_S_1" depart="299" departLane="random" departSpeed="10" />
    <vehicle id="S_N_2_42" type="standard_car" route="S_N_2" depart="300" departLane="random" departSpeed="10" />
    <vehicle id="N_S_2_43" type="standard_car" route="N_S_2" depart="305" departLane="random" departSpeed="10" />
    <vehicle id="E_W_44" type="standard_car" route="E_W" depart="307" departLane="random" departSpeed="10" />
    <vehicle id="E_W_45" type="standard_car" route="E_W" depart="310" departLane="random" departSpeed="10" />
    <vehicle id="E_N_46" type="standard_car" route="E_N" depart="327" departLane="random" departSpeed="10" />
    <vehicle id="S_E_47" type="standard_car" route="S_E" depart="330" departLane="random" departSpeed="10" />
    <vehicle id="W_S_48" type="standard_car" route="W_S" depart="339" departLane="random" departSpeed="10" />
    <vehicle id="E_N_49" type="standard_car" route="E_N" depart="339" departLane="random" departSpeed="10" />
    <vehicle id="S_N_2_50" type="standard_car" route="S_N_2" depart="340" departLane="random" departSpeed="10" />
    <vehicle id="W_E_51" type="standard_car" route="W_E" depart="342" departLane="random" departSpeed="10" />
    <vehicle id="N_S_1_52" type="standard_car" route="N_S_1" depart="345" departLane="random" departSpeed="10" />
    <vehicle id="S_N_2_53" type="standard_car" route="S_N_2" depart="345" departLane="random" departSpeed="10" />
    <vehicle id="W_S_54" type="standard_car" route="W_S" depart="347" departLane="random" departSpeed="10" />
    <vehicle id="W_S_55" type="standard_car" route="W_S" depart="354" departLane="random" departSpeed="10" />
    <vehicle id="E_W_56" type="standard_car" route="E_W" depart="355" departLane="random" departSpeed="10" />
    <vehicle id="N_S_2_57" type="standard_car" route="N_S_2" depart="357" departLane="random" departSpeed="10" />
    <vehicle id="E_W_58" type="standard_car" route="E_W" depart="363" departLane="random" departSpeed="10" />
    <vehicle id="E_N_59" type="standard_car" route="E_N" depart="369" departLane="random" departSpeed="10" />
    <vehicle id="N_W_60" type="standard_car" route="N_W" depart="369" departLane="random" departSpeed="10" />
    <vehicle id="N_W_61" type="standard_car" route="N_W" depart="369" departLane="random" departSpeed="10" />
    <vehicle id="S_N_2_62" type="standard_car" route="S_N_2" depart="370" departLane="random" departSpeed="10" />
    <vehicle id="N_S_2_63" type="standard_car" route="N_S_2" depart="371" departLane="random" departSpeed="10" />
    <vehicle id="N_W_64" type="standard_car" route="N_W" depart="373" departLane="random" departSpeed="10" />
    <vehicle id="W_S_65" type="standard_car" route="W_S" depart="378" departLane="random" departSpeed="10" />
    <vehicle id="E_W_66" type="standard_car" route="E_W" depart="379" departLane="random" departSpeed="10" />
    <vehicle id="W_S_67" type="standard_car" route="W_S" depart="386" departLane="random" departSpeed="10" />
    <vehicle id="N_S_2_68" type="standard_car" route="N_S_2" depart="386" departLane="random" departSpeed="10" />
    <vehicle id="S_N_2_69" type="standard_car" route="S_N_2" depart="394" departLane="random" departSpeed="10" />
    <vehicle id="N_S_1_70" type="standard_car" route="N_S_1" depart="396" departLane="random" departSpeed="10" />
    <vehicle id="W_E_71" type="standard_car" route="W_E" depart="400" departLane="random" departSpeed="10" />
    <vehicle id="S_N_2_72" type="standard_car" route="S_N_2" depart="403" departLane="random" departSpeed="10" />
    <vehicle id="E_N_73" type="standard_car" route="E_N" depart="408" departLane="random" departSpeed="10" />
    <vehicle id="S_N_1_74" type="standard_car" route="S_N_1" depart="409" departLane="random" departSpeed="10" />
    <vehicle id="E_N_75" type="standard_car" route="E_N" depart="414" departLane="random" departSpeed="10" />
    <vehicle id="S_N_2_76" type="standard_car" route="S_N_2" depart="414" departLane="random" departSpeed="10" />
    <vehicle id="E_N_77" type="standard_car" route="E_N" depart="414" departLane="random" departSpeed="10" />
    <vehicle id="W_E_78" type="standard_car" route="W_E" depart="414" departLane="random" departSpeed="10" />
    <vehicle id="N_S_1_79" type="standard_car" route="N_S_1" depart="418" departLane="random" departSpeed="10" />
    <vehicle id="N_S_2_80" type="standard_car" route="N_S_2" depart="420" departLane="random" departSpeed="10" />
    <vehicle id="W_E_81" type="standard_car" route="W_E" depart="422" departLane="random" departSpeed="10" />
    <vehicle id="W_E_82" type="standard_car" route="W_E" depart="431" departLane="random" departSpeed="10" />
    <vehicle id="E_W_83" type="standard_car" route="E_W" depart="434" departLane="random" departSpeed="10" />
    <vehicle id="S_E_84" type="standard_car" route="S_E" depart="435" departLane="random" departSpeed="10" />
    <vehicle id="N_W_85" type="standard_car" route="N_W" depart="441" departLane="random" departSpeed="10" />
    <vehicle id="E_W_86" type="standard_car" route="E_W" depart="442" departLane="random" departSpeed="10" />
    <vehicle id="W_E_87" type="standard_car" route="W_E" depart="446" departLane="random" departSpeed="10" />
    <vehicle id="W_E_88" type="standard_car" route="W_E" depart="446" departLane="random" departSpeed="10" />
    <vehicle id="S_N_2_89" type="standard_car" route="S_N_2" depart="446" departLane="random" departSpeed="10" />
    <vehicle id="S_N_2_90" type="standard_car" route="S_N_2" depart="454" departLane="random" departSpeed="10" />
    <vehicle id="W_S_91" type="standard_car" route="W_S" depart="456" departLane="random" departSpeed="10" />
    <vehicle id="S_N_2_92" type="standard_car" route="S_N_2" depart="457" departLane="random" departSpeed="10" />
    <vehicle id="W_S_93" type="standard_car" route="W_S" depart="459" departLane="random" departSpeed="10" />
    <vehicle id="S_E_94" type="standard_car" route="S_E" depart="460" departLane="random" departSpeed="10" />
    <vehicle id="S_E_95" type="standard_car" route="S_E" depart="461" departLane="random" departSpeed="10" />
    <vehicle id="W_S_96" type="standard_car" route="W_S" depart="467" departLane="random" departSpeed="10" />
    <vehicle id="N_S_2_97" type="standard_car" route="N_S_2" depart="469" departLane="random" departSpeed="10" />
    <vehicle id="N_W_98" type="standard_car" route="N_W" depart="470" departLane="random" departSpeed="10" />
    <vehicle id="N_S_2_99" type="standard_car" route="N_S_2" depart="470" departLane="random" departSpeed="10" />
    <vehicle id="N_S_1_100" type="standard_car" route="N_S_1" depart="472" departLane="random" departSpeed="10" />
    <vehicle id="S_N_2_101" type="standard_car" route="S_N_2" depart="472" departLane="random" departSpeed="10" />
    <vehicle id="N_W_102" type="standard_car" route="N_W" depart="475" departLane="random" departSpeed="10" />
    <vehicle id="E_N_103" type="standard_car" route="E_N" depart="480" departLane="random" departSpeed="10" />
    <vehicle id="E_W_104" type="standard_car" route="E_W" depart="482" departLane="random" departSpeed="10" />
    <vehicle id="S_E_105" type="standard_car" route="S_E" depart="484" departLane="random" departSpeed="10" />
    <vehicle id="N_S_2_106" type="standard_car" route="N_S_2" depart="484" departLane="random" departSpeed="10" />
    <vehicle id="S_N_1_107" type="standard_car" route="S_N_1" depart="485" departLane="random" departSpeed="10" />
    <vehicle id="S_E_108" type="standard_car" route="S_E" depart="487" departLane="random" departSpeed="10" />
    <vehicle id="E_W_109" type="standard_car" route="E_W" depart="488" departLane="random" departSpeed="10" />
    <vehicle id="S_N_1_110" type="standard_car" route="S_N_1" depart="489" departLane="random" departSpeed="10" />
    <vehicle id="S_N_1_111" type="standard_car" route="S_N_1" depart="490" departLane="random" departSpeed="10" />
    <vehicle id="E_N_112" type="standard_car" route="E_N" depart="491" departLane="random" departSpeed="10" />
    <vehicle id="S_N_1_113" type="standard_car" route="S_N_1" depart="496" departLane="random" departSpeed="10" />
    <vehicle id="N_S_1_114" type="standard_car" route="N_S_1" depart="498" departLane="random" departSpeed="10" />
    <vehicle id="S_N_1_115" type="standard_car" route="S_N_1" depart="498" departLane="random" departSpeed="10" />
    <vehicle id="S_N_2_116" type="standard_car" route="S_N_2" depart="505" departLane="random" departSpeed="10" />
    <vehicle id="N_W_117" type="standard_car" route="N_W" depart="505" departLane="random" departSpeed="10" />
    <vehicle id="E_W_118" type="standard_car" route="E_W" depart="505" departLane="random" departSpeed="10" />
    <vehicle id="N_S_1_119" type="standard_car" route="N_S_1" depart="507" departLane="random" departSpeed="10" />
    <vehicle id="N_S_1_120" type="standard_car" route="N_S_1" depart="507" departLane="random" departSpeed="10" />
    <vehicle id="N_S_1_121" type="standard_car" route="N_S_1" depart="510" departLane="random" departSpeed="10" />
    <vehicle id="E_W_122" type="standard_car" route="E_W" depart="514" departLane="random" departSpeed="10" />
    <vehicle id="E_W_123" type="standard_car" route="E_W" depart="515" departLane="random" departSpeed="10" />
    <vehicle id="N_S_1_124" type="standard_car" route="N_S_1" depart="521" departLane="random" departSpeed="10" />
    <vehicle id="N_W_125" type="standard_car" route="N_W" depart="525" departLane="random" departSpeed="10" />
    <vehicle id="E_N_126" type="standard_car" route="E_N" depart="526" departLane="random" departSpeed="10" />
    <vehicle id="N_S_2_127" type="standard_car" route="N_S_2" depart="528" departLane="random" departSpeed="10" />
    <vehicle id="S_N_1_128" type="standard_car" route="S_N_1" depart="530" departLane="random" departSpeed="10" />
    <vehicle id="S_E_129" type="standard_car" route="S_E" depart="531" departLane="random" departSpeed="10" />
    <vehicle id="N_W_130" type="standard_car" route="N_W" depart="531" departLane="random" departSpeed="10" />
    <vehicle id="N_S_2_131" type="standard_car" route="N_S_2" depart="531" departLane="random" departSpeed="10" />
    <vehicle id="S_N_1_132" type="standard_car" route="S_N_1" depart="531" departLane="random" departSpeed="10" />
    <vehicle id="N_S_2_133" type="standard_car" route="N_S_2" depart="534" departLane="random" departSpeed="10" />
    <vehicle id="S_E_134" type="standard_car" route="S_E" depart="536" departLane="random" departSpeed="10" />
    <vehicle id="N_S_2_135" type="standard_car" route="N_S_2" depart="537" departLane="random" departSpeed="10" />
    <vehicle id="E_N_136" type="standard_car" route="E_N" depart="538" departLane="random" departSpeed="10" />
    <vehicle id="W_S_137" type="standard_car" route="W_S" depart="539" departLane="random" departSpeed="10" />
    <vehicle id="E_W_138" type="standard_car" route="E_W" depart="540" departLane="random" departSpeed="10" />
    <vehicle id="S_E_139" type="standard_car" route="S_E" depart="542" departLane="random" departSpeed="10" />
    <vehicle id="S_E_140" type="standard_car" route="S_E" depart="545" departLane="random" departSpeed="10" />
    <vehicle id="N_S_1_141" type="standard_car" route="N_S_1" depart="547" departLane="random" departSpeed="10" />
    <vehicle id="N_S_1_142" type="standard_car" route="N_S_1" depart="548" departLane="random" departSpeed="10" />
    <vehicle id="N_S_1_143" type="standard_car" route="N_S_1" depart="549" departLane="random" departSpeed="10" />
    <vehicle id="E_W_144" type="standard_car" route="E_W" depart="549" departLane="random" departSpeed="10" />
    <vehicle id="S_E_145" type="standard_car" route="S_E" depart="550" departLane="random" departSpeed="10" />
    <vehicle id="E_W_146" type="standard_car" route="E_W" depart="550" departLane="random" departSpeed="10" />
    <vehicle id="E_N_147" type="standard_car" route="E_N" depart="551" departLane="random" departSpeed="10" />
    <vehicle id="N_S_2_148" type="standard_car" route="N_S_2" depart="552" departLane="random" departSpeed="10" />
    <vehicle id="N_S_2_149" type="standard_car" route="N_S_2" depart="554" departLane="random" departSpeed="10" />
    <vehicle id="W_E_150" type="standard_car" route="W_E" depart="563" departLane="random" departSpeed="10" />
    <vehicle id="S_N_1_151" type="standard_car" route="S_N_1" depart="563" departLane="random" departSpeed="10" />
    <vehicle id="N_S_2_152" type="standard_car" route="N_S_2" depart="563" departLane="random" departSpeed="10" />
    <vehicle id="W_E_153" type="standard_car" route="W_E" depart="566" departLane="random" departSpeed="10" />
    <vehicle id="W_S_154" type="standard_car" route="W_S" depart="567" departLane="random" departSpeed="10" />
    <vehicle id="S_E_155" type="standard_car" route="S_E" depart="568" departLane="random" departSpeed="10" />
    <vehicle id="N_S_1_156" type="standard_car" route="N_S_1" depart="568" departLane="random" departSpeed="10" />
    <vehicle id="S_N_1_157" type="standard_car" route="S_N_1" depart="572" departLane="random" departSpeed="10" />
    <vehicle id="W_E_158" type="standard_car" route="W_E" depart="573" departLane="random" departSpeed="10" />
    <vehicle id="N_S_2_159" type="standard_car" route="N_S_2" depart="575" departLane="random" departSpeed="10" />
    <vehicle id="N_S_2_160" type="standard_car" route="N_S_2" depart="576" departLane="random" departSpeed="10" />
    <vehicle id="S_N_1_161" type="standard_car" route="S_N_1" depart="577" departLane="random" departSpeed="10" />
    <vehicle id="S_E_162" type="standard_car" route="S_E" depart="577" departLane="random" departSpeed="10" />
    <vehicle id="S_E_163" type="standard_car" route="S_E" depart="579" departLane="random" departSpeed="10" />
    <vehicle id="N_W_164" type="standard_car" route="N_W" depart="580" departLane="random" departSpeed="10" />
    <vehicle id="S_N_1_165" type="standard_car" route="S_N_1" depart="583" departLane="random" departSpeed="10" />
    <vehicle id="W_S_166" type="standard_car" route="W_S" depart="587" departLane="random" departSpeed="10" />
    <vehicle id="W_E_167" type="standard_car" route="W_E" depart="588" departLane="random" departSpeed="10" />
    <vehicle id="N_S_2_168" type="standard_car" route="N_S_2" depart="588" departLane="random" departSpeed="10" />
    <vehicle id="W_S_169" type="standard_car" route="W_S" depart="592" departLane="random" departSpeed="10" />
    <vehicle id="S_N_1_170" type="standard_car" route="S_N_1" depart="593" departLane="random" departSpeed="10" />
    <vehicle id="N_S_2_171" type="standard_car" route="N_S_2" depart="594" departLane="random" departSpeed="10" />
    <vehicle id="N_S_2_172" type="standard_car" route="N_S_2" depart="597" departLane="random" departSpeed="10" />
    <vehicle id="N_W_173" type="standard_car" route="N_W" depart="598" departLane="random" departSpeed="10" />
    <vehicle id="N_W_174" type="standard_car" route="N_W" depart="599" departLane="random" departSpeed="10" />
    <vehicle id="W_E_175" type="standard_car" route="W_E" depart="600" departLane="random" departSpeed="10" />
    <vehicle id="S_E_176" type="standard_car" route="S_E" depart="601" departLane="random" departSpeed="10" />
    <vehicle id="N_S_1_177" type="standard_car" route="N_S_1" depart="602" departLane="random" departSpeed="10" />
    <vehicle id="E_N_178" type="standard_car" route="E_N" depart="605" departLane="random" departSpeed="10" />
    <vehicle id="S_N_1_179" type="standard_car" route="S_N_1" depart="608" departLane="random" departSpeed="10" />
    <vehicle id="E_W_180" type="standard_car" route="E_W" depart="610" departLane="random" departSpeed="10" />
    <vehicle id="S_E_181" type="standard_car" route="S_E" depart="610" departLane="random" departSpeed="10" />
    <vehicle id="N_S_2_182" type="standard_car" route="N_S_2" depart="611" departLane="random" departSpeed="10" />
    <vehicle id="W_S_183" type="standard_car" route="W_S" depart="612" departLane="random" departSpeed="10" />
    <vehicle id="W_S_184" type="standard_car" route="W_S" depart="617" departLane="random" departSpeed="10" />
    <vehicle id="S_E_185" type="standard_car" route="S_E" depart="618" departLane="random" departSpeed="10" />
    <vehicle id="W_S_186" type="standard_car" route="W_S" depart="618" departLane="random" departSpeed="10" />
    <vehicle id="N_W_187" type="standard_car" route="N_W" depart="619" departLane="random" departSpeed="10" />
    <vehicle id="N_S_1_188" type="standard_car" route="N_S_1" depart="619" departLane="random" departSpeed="10" />
    <vehicle id="S_E_189" type="standard_car" route="S_E" depart="621" departLane="random" departSpeed="10" />
    <vehicle id="S_N_2_190" type="standard_car" route="S_N_2" depart="621" departLane="random" departSpeed="10" />
    <vehicle id="W_E_191" type="standard_car" route="W_E" depart="621" departLane="random" departSpeed="10" />
    <vehicle id="W_E_192" type="standard_car" route="W_E" depart="623" departLane="random" departSpeed="10" />
    <vehicle id="W_E_193" type="standard_car" route="W_E" depart="624" departLane="random" departSpeed="10" />
    <vehicle id="W_S_194" type="standard_car" route="W_S" depart="624" departLane="random" departSpeed="10" />
    <vehicle id="S_N_2_195" type="standard_car" route="S_N_2" depart="628" departLane="random" departSpeed="10" />
    <vehicle id="E_W_196" type="standard_car" route="E_W" depart="630" departLane="random" departSpeed="10" />
    <vehicle id="W_E_197" type="standard_car" route="W_E" depart="631" departLane="random" departSpeed="10" />
    <vehicle id="N_S_2_198" type="standard_car" route="N_S_2" depart="636" departLane="random" departSpeed="10" />
    <vehicle id="N_W_199" type="standard_car" route="N_W" depart="637" departLane="random" departSpeed="10" />
    <vehicle id="N_W_200" type="standard_car" route="N_W" depart="637" departLane="random" departSpeed="10" />
    <vehicle id="N_W_201" type="standard_car" route="N_W" depart="640" departLane="random" departSpeed="10" />
    <vehicle id="W_S_202" type="standard_car" route="W_S" depart="641" departLane="random" departSpeed="10" />
    <vehicle id="N_S_2_203" type="standard_car" route="N_S_2" depart="643" departLane="random" departSpeed="10" />
    <vehicle id="S_E_204" type="standard_car" route="S_E" depart="645" departLane="random" departSpeed="10" />
    <vehicle id="S_N_1_205" type="standard_car" route="S_N_1" depart="648" departLane="random" departSpeed="10" />
    <vehicle id="N_W_206" type="standard_car" route="N_W" depart="648" departLane="random" departSpeed="10" />
    <vehicle id="E_W_207" type="standard_car" route="E_W" depart="650" departLane="random" departSpeed="10" />
    <vehicle id="S_N_2_208" type="standard_car" route="S_N_2" depart="651" departLane="random" departSpeed="10" />
    <vehicle id="E_N_209" type="standard_car" route="E_N" depart="653" departLane="random" departSpeed="10" />
    <vehicle id="E_W_210" type="standard_car" route="E_W" depart="653" departLane="random" departSpeed="10" />
    <vehicle id="S_E_211" type="standard_car" route="S_E" depart="653" departLane="random" departSpeed="10" />
    <vehicle id="E_W_212" type="standard_car" route="E_W" depart="654" departLane="random" departSpeed="10" />
    <vehicle id="N_S_2_213" type="standard_car" route="N_S_2" depart="655" departLane="random" departSpeed="10" />
    <vehicle id="W_S_214" type="standard_car" route="W_S" depart="656" departLane="random" departSpeed="10" />
    <vehicle id="N_S_1_215" type="standard_car" route="N_S_1" depart="657" departLane="random" departSpeed="10" />
    <vehicle id="E_W_216" type="standard_car" route="E_W" depart="663" departLane="random" departSpeed="10" />
    <vehicle id="N_S_2_217" type="standard_car" route="N_S_2" depart="663" departLane="random" departSpeed="10" />
    <vehicle id="S_N_2_218" type="standard_car" route="S_N_2" depart="663" departLane="random" departSpeed="10" />
    <vehicle id="W_S_219" type="standard_car" route="W_S" depart="664" departLane="random" departSpeed="10" />
    <vehicle id="S_N_1_220" type="standard_car" route="S_N_1" depart="665" departLane="random" departSpeed="10" />
    <vehicle id="S_N_1_221" type="standard_car" route="S_N_1" depart="665" departLane="random" departSpeed="10" />
    <vehicle id="S_N_1_222" type="standard_car" route="S_N_1" depart="666" departLane="random" departSpeed="10" />
    <vehicle id="W_E_223" type="standard_car" route="W_E" depart="667" departLane="random" departSpeed="10" />
    <vehicle id="S_N_2_224" type="standard_car" route="S_N_2" depart="669" departLane="random" departSpeed="10" />
    <vehicle id="S_N_1_225" type="standard_car" route="S_N_1" depart="673" departLane="random" departSpeed="10" />
    <vehicle id="N_S_2_226" type="standard_car" route="N_S_2" depart="673" departLane="random" departSpeed="10" />
    <vehicle id="N_S_2_227" type="standard_car" route="N_S_2" depart="676" departLane="random" departSpeed="10" />
    <vehicle id="W_E_228" type="standard_car" route="W_E" depart="677" departLane="random" departSpeed="10" />
    <vehicle id="N_S_2_229" type="standard_car" route="N_S_2" depart="682" departLane="random" departSpeed="10" />
    <vehicle id="S_N_1_230" type="standard_car" route="S_N_1" depart="682" departLane="random" departSpeed="10" />
    <vehicle id="E_W_231" type="standard_car" route="E_W" depart="684" departLane="random" departSpeed="10" />
    <vehicle id="W_E_232" type="standard_car" route="W_E" depart="685" departLane="random" departSpeed="10" />
    <vehicle id="W_E_233" type="standard_car" route="W_E" depart="687" departLane="random" departSpeed="10" />
    <vehicle id="E_N_234" type="standard_car" route="E_N" depart="687" departLane="random" departSpeed="10" />
    <vehicle id="W_E_235" type="standard_car" route="W_E" depart="689" departLane="random" departSpeed="10" />
    <vehicle id="N_S_1_236" type="standard_car" route="N_S_1" depart="690" departLane="random" departSpeed="10" />
    <vehicle id="W_E_237" type="standard_car" route="W_E" depart="692" departLane="random" departSpeed="10" />
    <vehicle id="E_W_238" type="standard_car" route="E_W" depart="693" departLane="random" departSpeed="10" />
    <vehicle id="N_W_239" type="standard_car" route="N_W" depart="693" departLane="random" departSpeed="10" />
    <vehicle id="W_S_240" type="standard_car" route="W_S" depart="693" departLane="random" departSpeed="10" />
    <vehicle id="S_E_241" type="standard_car" route="S_E" depart="695" departLane="random" departSpeed="10" />
    <vehicle id="W_E_242" type="standard_car" route="W_E" depart="696" departLane="random" departSpeed="10" />
    <vehicle id="S_N_1_243" type="standard_car" route="S_N_1" depart="697" departLane="random" departSpeed="10" />
    <vehicle id="W_S_244" type="standard_car" route="W_S" depart="697" departLane="random" departSpeed="10" />
    <vehicle id="E_N_245" type="standard_car" route="E_N" depart="699" departLane="random" departSpeed="10" />
    <vehicle id="N_W_246" type="standard_car" route="N_W" depart="699" departLane="random" departSpeed="10" />
    <vehicle id="S_N_2_247" type="standard_car" route="S_N_2" depart="699" departLane="random" departSpeed="10" />
    <vehicle id="N_S_1_248" type="standard_car" route="N_S_1" depart="700" departLane="random" departSpeed="10" />
    <vehicle id="W_S_249" type="standard_car" route="W_S" depart="700" departLane="random" departSpeed="10" />
    <vehicle id="W_S_250" type="standard_car" route="W_S" depart="701" departLane="random" departSpeed="10" />
    <vehicle id="W_S_251" type="standard_car" route="W_S" depart="701" departLane="random" departSpeed="10" />
    <vehicle id="E_W_252" type="standard_car" route="E_W" depart="704" departLane="random" departSpeed="10" />
    <vehicle id="E_W_253" type="standard_car" route="E_W" depart="706" departLane="random" departSpeed="10" />
    <vehicle id="E_W_254" type="standard_car" route="E_W" depart="707" departLane="random" departSpeed="10" />
    <vehicle id="S_N_1_255" type="standard_car" route="S_N_1" depart="708" departLane="random" departSpeed="10" />
    <vehicle id="N_S_1_256" type="standard_car" route="N_S_1" depart="710" departLane="random" departSpeed="10" />
    <vehicle id="W_E_257" type="standard_car" route="W_E" depart="711" departLane="random" departSpeed="10" />
    <vehicle id="W_E_258" type="standard_car" route="W_E" depart="711" departLane="random" departSpeed="10" />