<?xml version="1.0" encoding="UTF-8"?>

<!-- generated on 2025-04-16 17:26:52 by Eclipse SUMO netconvert Version 1.22.0
<netconvertConfiguration xmlns:xsi="http://www.w3.org/2001/XMLSchema-instance" xsi:noNamespaceSchemaLocation="http://sumo.dlr.de/xsd/netconvertConfiguration.xsd">

    <input>
        <node-files value="1x2_grid.nod.xml"/>
        <edge-files value="1x2_grid.edg.xml"/>
    </input>

    <output>
        <output-file value="1x2_grid.net.xml"/>
    </output>

</netconvertConfiguration>
-->

<net version="1.20" junctionCornerDetail="5" limitTurnSpeed="5.50" xmlns:xsi="http://www.w3.org/2001/XMLSchema-instance" xsi:noNamespaceSchemaLocation="http://sumo.dlr.de/xsd/net_file.xsd">

    <location netOffset="1125.00,750.00" convBoundary="0.00,0.00,2250.00,1500.00" origBoundary="-1125.00,-750.00,1125.00,750.00" projParameter="!"/>

    <edge id=":2_DN_0" function="internal">
        <lane id=":2_DN_0_0" index="0" speed="3.65" length="4.67" shape="1501.60,1500.00 1500.80,1501.20 1500.00,1501.60 1499.20,1501.20 1498.40,1500.00"/>
    </edge>
    <edge id=":2_DS_0" function="internal">
        <lane id=":2_DS_0_0" index="0" speed="3.65" length="4.67" shape="1498.40,0.00 1499.20,-1.20 1500.00,-1.60 1500.80,-1.20 1501.60,0.00"/>
    </edge>
    <edge id=":2_TL_0" function="internal">
        <lane id=":2_TL_0_0" index="0" speed="6.51" length="9.03" shape="1488.80,766.80 1488.45,764.35 1487.40,762.60 1485.65,761.55 1483.20,761.20"/>
    </edge>
    <edge id=":2_TL_1" function="internal">
        <lane id=":2_TL_1_0" index="0" speed="13.89" length="33.60" shape="1488.80,766.80 1488.80,733.20"/>
        <lane id=":2_TL_1_1" index="1" speed="13.89" length="33.60" shape="1492.00,766.80 1492.00,733.20"/>
        <lane id=":2_TL_1_2" index="2" speed="13.89" length="33.60" shape="1495.20,766.80 1495.20,733.20"/>
        <lane id=":2_TL_1_3" index="3" speed="13.89" length="33.60" shape="1498.40,766.80 1498.40,733.20"/>
    </edge>
    <edge id=":2_TL_5" function="internal">
        <lane id=":2_TL_5_0" index="0" speed="11.36" length="5.01" shape="1498.40,766.80 1499.11,761.84"/>
    </edge>
    <edge id=":2_TL_6" function="internal">
        <lane id=":2_TL_6_0" index="0" speed="3.65" length="1.44" shape="1498.40,766.80 1499.20,765.60"/>
    </edge>
    <edge id=":2_TL_28" function="internal">
        <lane id=":2_TL_28_0" index="0" speed="11.36" length="24.66" shape="1499.11,761.84 1499.55,758.75 1503.00,753.00 1508.75,749.55 1516.80,748.40"/>
    </edge>
    <edge id=":2_TL_29" function="internal">
        <lane id=":2_TL_29_0" index="0" speed="3.65" length="3.23" shape="1499.20,765.60 1500.00,765.20 1500.80,765.60 1501.60,766.80"/>
    </edge>
    <edge id=":2_TL_7" function="internal">
        <lane id=":2_TL_7_0" index="0" speed="6.51" length="9.03" shape="1516.80,761.20 1514.35,761.55 1512.60,762.60 1511.55,764.35 1511.20,766.80"/>
    </edge>
    <edge id=":2_TL_8" function="internal">
        <lane id=":2_TL_8_0" index="0" speed="13.89" length="33.60" shape="1516.80,761.20 1483.20,761.20"/>
        <lane id=":2_TL_8_1" index="1" speed="13.89" length="33.60" shape="1516.80,758.00 1483.20,758.00"/>
        <lane id=":2_TL_8_2" index="2" speed="13.89" length="33.60" shape="1516.80,754.80 1483.20,754.80"/>
        <lane id=":2_TL_8_3" index="3" speed="13.89" length="33.60" shape="1516.80,751.60 1483.20,751.60"/>
    </edge>
    <edge id=":2_TL_12" function="internal">
        <lane id=":2_TL_12_0" index="0" speed="11.36" length="5.01" shape="1516.80,751.60 1511.84,750.89"/>
    </edge>
    <edge id=":2_TL_13" function="internal">
        <lane id=":2_TL_13_0" index="0" speed="3.65" length="1.44" shape="1516.80,751.60 1515.60,750.80"/>
    </edge>
    <edge id=":2_TL_30" function="internal">
        <lane id=":2_TL_30_0" index="0" speed="11.36" length="24.66" shape="1511.84,750.89 1508.75,750.45 1503.00,747.00 1499.55,741.25 1498.40,733.20"/>
    </edge>
    <edge id=":2_TL_31" function="internal">
        <lane id=":2_TL_31_0" index="0" speed="3.65" length="3.23" shape="1515.60,750.80 1515.20,750.00 1515.60,749.20 1516.80,748.40"/>
    </edge>
    <edge id=":2_TL_14" function="internal">
        <lane id=":2_TL_14_0" index="0" speed="6.51" length="9.03" shape="1511.20,733.20 1511.55,735.65 1512.60,737.40 1514.35,738.45 1516.80,738.80"/>
    </edge>
    <edge id=":2_TL_15" function="internal">
        <lane id=":2_TL_15_0" index="0" speed="13.89" length="33.60" shape="1511.20,733.20 1511.20,766.80"/>
        <lane id=":2_TL_15_1" index="1" speed="13.89" length="33.60" shape="1508.00,733.20 1508.00,766.80"/>
        <lane id=":2_TL_15_2" index="2" speed="13.89" length="33.60" shape="1504.80,733.20 1504.80,766.80"/>
        <lane id=":2_TL_15_3" index="3" speed="13.89" length="33.60" shape="1501.60,733.20 1501.60,766.80"/>
    </edge>
    <edge id=":2_TL_19" function="internal">
        <lane id=":2_TL_19_0" index="0" speed="11.36" length="5.01" shape="1501.60,733.20 1500.89,738.16"/>
    </edge>
    <edge id=":2_TL_20" function="internal">
        <lane id=":2_TL_20_0" index="0" speed="3.65" length="1.44" shape="1501.60,733.20 1500.80,734.40"/>
    </edge>
    <edge id=":2_TL_32" function="internal">
        <lane id=":2_TL_32_0" index="0" speed="11.36" length="24.66" shape="1500.89,738.16 1500.45,741.25 1497.00,747.00 1491.25,750.45 1483.20,751.60"/>
    </edge>
    <edge id=":2_TL_33" function="internal">
        <lane id=":2_TL_33_0" index="0" speed="3.65" length="3.23" shape="1500.80,734.40 1500.00,734.80 1499.20,734.40 1498.40,733.20"/>
    </edge>
    <edge id=":2_TL_21" function="internal">
        <lane id=":2_TL_21_0" index="0" speed="6.51" length="9.03" shape="1483.20,738.80 1485.65,738.45 1487.40,737.40 1488.45,735.65 1488.80,733.20"/>
    </edge>
    <edge id=":2_TL_22" function="internal">
        <lane id=":2_TL_22_0" index="0" speed="13.89" length="33.60" shape="1483.20,738.80 1516.80,738.80"/>
        <lane id=":2_TL_22_1" index="1" speed="13.89" length="33.60" shape="1483.20,742.00 1516.80,742.00"/>
        <lane id=":2_TL_22_2" index="2" speed="13.89" length="33.60" shape="1483.20,745.20 1516.80,745.20"/>
        <lane id=":2_TL_22_3" index="3" speed="13.89" length="33.60" shape="1483.20,748.40 1516.80,748.40"/>
    </edge>
    <edge id=":2_TL_26" function="internal">
        <lane id=":2_TL_26_0" index="0" speed="11.36" length="5.01" shape="1483.20,748.40 1488.16,749.11"/>
    </edge>
    <edge id=":2_TL_27" function="internal">
        <lane id=":2_TL_27_0" index="0" speed="3.65" length="1.44" shape="1483.20,748.40 1484.40,749.20"/>
    </edge>
    <edge id=":2_TL_34" function="internal">
        <lane id=":2_TL_34_0" index="0" speed="11.36" length="24.66" shape="1488.16,749.11 1491.25,749.55 1497.00,753.00 1500.45,758.75 1501.60,766.80"/>
    </edge>
    <edge id=":2_TL_35" function="internal">
        <lane id=":2_TL_35_0" index="0" speed="3.65" length="3.23" shape="1484.40,749.20 1484.80,750.00 1484.40,750.80 1483.20,751.60"/>
    </edge>
    <edge id=":DE_0" function="internal">
        <lane id=":DE_0_0" index="0" speed="3.65" length="4.67" shape="2250.00,748.40 2251.20,749.20 2251.60,750.00 2251.20,750.80 2250.00,751.60"/>
    </edge>
    <edge id=":DN_0" function="internal">
        <lane id=":DN_0_0" index="0" speed="3.65" length="4.67" shape="751.60,1500.00 750.80,1501.20 750.00,1501.60 749.20,1501.20 748.40,1500.00"/>
    </edge>
    <edge id=":DS_0" function="internal">
        <lane id=":DS_0_0" index="0" speed="3.65" length="4.67" shape="748.40,0.00 749.20,-1.20 750.00,-1.60 750.80,-1.20 751.60,0.00"/>
    </edge>
    <edge id=":DW_0" function="internal">
        <lane id=":DW_0_0" index="0" speed="3.65" length="4.67" shape="0.00,751.60 -1.20,750.80 -1.60,750.00 -1.20,749.20 0.00,748.40"/>
    </edge>
    <edge id=":TL_0" function="internal">
        <lane id=":TL_0_0" index="0" speed="6.51" length="9.03" shape="738.80,766.80 738.45,764.35 737.40,762.60 735.65,761.55 733.20,761.20"/>
    </edge>
    <edge id=":TL_1" function="internal">
        <lane id=":TL_1_0" index="0" speed="13.89" length="33.60" shape="738.80,766.80 738.80,733.20"/>
        <lane id=":TL_1_1" index="1" speed="13.89" length="33.60" shape="742.00,766.80 742.00,733.20"/>
        <lane id=":TL_1_2" index="2" speed="13.89" length="33.60" shape="745.20,766.80 745.20,733.20"/>
        <lane id=":TL_1_3" index="3" speed="13.89" length="33.60" shape="748.40,766.80 748.40,733.20"/>
    </edge>
    <edge id=":TL_5" function="internal">
        <lane id=":TL_5_0" index="0" speed="11.36" length="5.01" shape="748.40,766.80 749.11,761.84"/>
    </edge>
    <edge id=":TL_6" function="internal">
        <lane id=":TL_6_0" index="0" speed="3.65" length="1.44" shape="748.40,766.80 749.20,765.60"/>
    </edge>
    <edge id=":TL_28" function="internal">
        <lane id=":TL_28_0" index="0" speed="11.36" length="24.66" shape="749.11,761.84 749.55,758.75 753.00,753.00 758.75,749.55 766.80,748.40"/>
    </edge>
    <edge id=":TL_29" function="internal">
        <lane id=":TL_29_0" index="0" speed="3.65" length="3.23" shape="749.20,765.60 750.00,765.20 750.80,765.60 751.60,766.80"/>
    </edge>
    <edge id=":TL_7" function="internal">
        <lane id=":TL_7_0" index="0" speed="6.51" length="9.03" shape="766.80,761.20 764.35,761.55 762.60,762.60 761.55,764.35 761.20,766.80"/>
    </edge>
    <edge id=":TL_8" function="internal">
        <lane id=":TL_8_0" index="0" speed="13.89" length="33.60" shape="766.80,761.20 733.20,761.20"/>
        <lane id=":TL_8_1" index="1" speed="13.89" length="33.60" shape="766.80,758.00 733.20,758.00"/>
        <lane id=":TL_8_2" index="2" speed="13.89" length="33.60" shape="766.80,754.80 733.20,754.80"/>
        <lane id=":TL_8_3" index="3" speed="13.89" length="33.60" shape="766.80,751.60 733.20,751.60"/>
    </edge>
    <edge id=":TL_12" function="internal">
        <lane id=":TL_12_0" index="0" speed="11.36" length="5.01" shape="766.80,751.60 761.84,750.89"/>
    </edge>
    <edge id=":TL_13" function="internal">
        <lane id=":TL_13_0" index="0" speed="3.65" length="1.44" shape="766.80,751.60 765.60,750.80"/>
    </edge>
    <edge id=":TL_30" function="internal">
        <lane id=":TL_30_0" index="0" speed="11.36" length="24.66" shape="761.84,750.89 758.75,750.45 753.00,747.00 749.55,741.25 748.40,733.20"/>
    </edge>
    <edge id=":TL_31" function="internal">
        <lane id=":TL_31_0" index="0" speed="3.65" length="3.23" shape="765.60,750.80 765.20,750.00 765.60,749.20 766.80,748.40"/>
    </edge>
    <edge id=":TL_14" function="internal">
        <lane id=":TL_14_0" index="0" speed="6.51" length="9.03" shape="761.20,733.20 761.55,735.65 762.60,737.40 764.35,738.45 766.80,738.80"/>
    </edge>
    <edge id=":TL_15" function="internal">
        <lane id=":TL_15_0" index="0" speed="13.89" length="33.60" shape="761.20,733.20 761.20,766.80"/>
        <lane id=":TL_15_1" index="1" speed="13.89" length="33.60" shape="758.00,733.20 758.00,766.80"/>
        <lane id=":TL_15_2" index="2" speed="13.89" length="33.60" shape="754.80,733.20 754.80,766.80"/>
        <lane id=":TL_15_3" index="3" speed="13.89" length="33.60" shape="751.60,733.20 751.60,766.80"/>
    </edge>
    <edge id=":TL_19" function="internal">
        <lane id=":TL_19_0" index="0" speed="11.36" length="5.01" shape="751.60,733.20 750.89,738.16"/>
    </edge>
    <edge id=":TL_20" function="internal">
        <lane id=":TL_20_0" index="0" speed="3.65" length="1.44" shape="751.60,733.20 750.80,734.40"/>
    </edge>
    <edge id=":TL_32" function="internal">
        <lane id=":TL_32_0" index="0" speed="11.36" length="24.66" shape="750.89,738.16 750.45,741.25 747.00,747.00 741.25,750.45 733.20,751.60"/>
    </edge>
    <edge id=":TL_33" function="internal">
        <lane id=":TL_33_0" index="0" speed="3.65" length="3.23" shape="750.80,734.40 750.00,734.80 749.20,734.40 748.40,733.20"/>
    </edge>
    <edge id=":TL_21" function="internal">
        <lane id=":TL_21_0" index="0" speed="6.51" length="9.03" shape="733.20,738.80 735.65,738.45 737.40,737.40 738.45,735.65 738.80,733.20"/>
    </edge>
    <edge id=":TL_22" function="internal">
        <lane id=":TL_22_0" index="0" speed="13.89" length="33.60" shape="733.20,738.80 766.80,738.80"/>
        <lane id=":TL_22_1" index="1" speed="13.89" length="33.60" shape="733.20,742.00 766.80,742.00"/>
        <lane id=":TL_22_2" index="2" speed="13.89" length="33.60" shape="733.20,745.20 766.80,745.20"/>
        <lane id=":TL_22_3" index="3" speed="13.89" length="33.60" shape="733.20,748.40 766.80,748.40"/>
    </edge>
    <edge id=":TL_26" function="internal">
        <lane id=":TL_26_0" index="0" speed="11.36" length="5.01" shape="733.20,748.40 738.16,749.11"/>
    </edge>
    <edge id=":TL_27" function="internal">
        <lane id=":TL_27_0" index="0" speed="3.65" length="1.44" shape="733.20,748.40 734.40,749.20"/>
    </edge>
    <edge id=":TL_34" function="internal">
        <lane id=":TL_34_0" index="0" speed="11.36" length="24.66" shape="738.16,749.11 741.25,749.55 747.00,753.00 750.45,758.75 751.60,766.80"/>
    </edge>
    <edge id=":TL_35" function="internal">
        <lane id=":TL_35_0" index="0" speed="3.65" length="3.23" shape="734.40,749.20 734.80,750.00 734.40,750.80 733.20,751.60"/>
    </edge>

    <edge id="2_E2TL" from="DE" to="2_TL" priority="-1">
        <lane id="2_E2TL_0" index="0" speed="13.89" length="733.20" shape="2250.00,761.20 1516.80,761.20"/>
        <lane id="2_E2TL_1" index="1" speed="13.89" length="733.20" shape="2250.00,758.00 1516.80,758.00"/>
        <lane id="2_E2TL_2" index="2" speed="13.89" length="733.20" shape="2250.00,754.80 1516.80,754.80"/>
        <lane id="2_E2TL_3" index="3" speed="13.89" length="733.20" shape="2250.00,751.60 1516.80,751.60"/>
    </edge>
    <edge id="2_N2TL" from="2_DN" to="2_TL" priority="-1">
        <lane id="2_N2TL_0" index="0" speed="13.89" length="733.20" shape="1488.80,1500.00 1488.80,766.80"/>
        <lane id="2_N2TL_1" index="1" speed="13.89" length="733.20" shape="1492.00,1500.00 1492.00,766.80"/>
        <lane id="2_N2TL_2" index="2" speed="13.89" length="733.20" shape="1495.20,1500.00 1495.20,766.80"/>
        <lane id="2_N2TL_3" index="3" speed="13.89" length="733.20" shape="1498.40,1500.00 1498.40,766.80"/>
    </edge>
    <edge id="2_S2TL" from="2_DS" to="2_TL" priority="-1">
        <lane id="2_S2TL_0" index="0" speed="13.89" length="733.20" shape="1511.20,0.00 1511.20,733.20"/>
        <lane id="2_S2TL_1" index="1" speed="13.89" length="733.20" shape="1508.00,0.00 1508.00,733.20"/>
        <lane id="2_S2TL_2" index="2" speed="13.89" length="733.20" shape="1504.80,0.00 1504.80,733.20"/>
        <lane id="2_S2TL_3" index="3" speed="13.89" length="733.20" shape="1501.60,0.00 1501.60,733.20"/>
    </edge>
    <edge id="2_TL2E" from="2_TL" to="DE" priority="-1">
        <lane id="2_TL2E_0" index="0" speed="13.89" length="733.20" shape="1516.80,738.80 2250.00,738.80"/>
        <lane id="2_TL2E_1" index="1" speed="13.89" length="733.20" shape="1516.80,742.00 2250.00,742.00"/>
        <lane id="2_TL2E_2" index="2" speed="13.89" length="733.20" shape="1516.80,745.20 2250.00,745.20"/>
        <lane id="2_TL2E_3" index="3" speed="13.89" length="733.20" shape="1516.80,748.40 2250.00,748.40"/>
    </edge>
    <edge id="2_TL2N" from="2_TL" to="2_DN" priority="-1">
        <lane id="2_TL2N_0" index="0" speed="13.89" length="733.20" shape="1511.20,766.80 1511.20,1500.00"/>
        <lane id="2_TL2N_1" index="1" speed="13.89" length="733.20" shape="1508.00,766.80 1508.00,1500.00"/>
        <lane id="2_TL2N_2" index="2" speed="13.89" length="733.20" shape="1504.80,766.80 1504.80,1500.00"/>
        <lane id="2_TL2N_3" index="3" speed="13.89" length="733.20" shape="1501.60,766.80 1501.60,1500.00"/>
    </edge>
    <edge id="2_TL2S" from="2_TL" to="2_DS" priority="-1">
        <lane id="2_TL2S_0" index="0" speed="13.89" length="733.20" shape="1488.80,733.20 1488.80,0.00"/>
        <lane id="2_TL2S_1" index="1" speed="13.89" length="733.20" shape="1492.00,733.20 1492.00,0.00"/>
        <lane id="2_TL2S_2" index="2" speed="13.89" length="733.20" shape="1495.20,733.20 1495.20,0.00"/>
        <lane id="2_TL2S_3" index="3" speed="13.89" length="733.20" shape="1498.40,733.20 1498.40,0.00"/>
    </edge>
    <edge id="2_TL2W" from="2_TL" to="TL" priority="-1">
        <lane id="2_TL2W_0" index="0" speed="13.89" length="716.40" shape="1483.20,761.20 766.80,761.20"/>
        <lane id="2_TL2W_1" index="1" speed="13.89" length="716.40" shape="1483.20,758.00 766.80,758.00"/>
        <lane id="2_TL2W_2" index="2" speed="13.89" length="716.40" shape="1483.20,754.80 766.80,754.80"/>
        <lane id="2_TL2W_3" index="3" speed="13.89" length="716.40" shape="1483.20,751.60 766.80,751.60"/>
    </edge>
    <edge id="N2TL" from="DN" to="TL" priority="-1">
        <lane id="N2TL_0" index="0" speed="13.89" length="733.20" shape="738.80,1500.00 738.80,766.80"/>
        <lane id="N2TL_1" index="1" speed="13.89" length="733.20" shape="742.00,1500.00 742.00,766.80"/>
        <lane id="N2TL_2" index="2" speed="13.89" length="733.20" shape="745.20,1500.00 745.20,766.80"/>
        <lane id="N2TL_3" index="3" speed="13.89" length="733.20" shape="748.40,1500.00 748.40,766.80"/>
    </edge>
    <edge id="S2TL" from="DS" to="TL" priority="-1">
        <lane id="S2TL_0" index="0" speed="13.89" length="733.20" shape="761.20,0.00 761.20,733.20"/>
        <lane id="S2TL_1" index="1" speed="13.89" length="733.20" shape="758.00,0.00 758.00,733.20"/>
        <lane id="S2TL_2" index="2" speed="13.89" length="733.20" shape="754.80,0.00 754.80,733.20"/>
        <lane id="S2TL_3" index="3" speed="13.89" length="733.20" shape="751.60,0.00 751.60,733.20"/>
    </edge>
    <edge id="TL2E" from="TL" to="2_TL" priority="-1">
        <lane id="TL2E_0" index="0" speed="13.89" length="716.40" shape="766.80,738.80 1483.20,738.80"/>
        <lane id="TL2E_1" index="1" speed="13.89" length="716.40" shape="766.80,742.00 1483.20,742.00"/>
        <lane id="TL2E_2" index="2" speed="13.89" length="716.40" shape="766.80,745.20 1483.20,745.20"/>
        <lane id="TL2E_3" index="3" speed="13.89" length="716.40" shape="766.80,748.40 1483.20,748.40"/>
    </edge>
    <edge id="TL2N" from="TL" to="DN" priority="-1">
        <lane id="TL2N_0" index="0" speed="13.89" length="733.20" shape="761.20,766.80 761.20,1500.00"/>
        <lane id="TL2N_1" index="1" speed="13.89" length="733.20" shape="758.00,766.80 758.00,1500.00"/>
        <lane id="TL2N_2" index="2" speed="13.89" length="733.20" shape="754.80,766.80 754.80,1500.00"/>
        <lane id="TL2N_3" index="3" speed="13.89" length="733.20" shape="751.60,766.80 751.60,1500.00"/>
    </edge>
    <edge id="TL2S" from="TL" to="DS" priority="-1">
        <lane id="TL2S_0" index="0" speed="13.89" length="733.20" shape="738.80,733.20 738.80,0.00"/>
        <lane id="TL2S_1" index="1" speed="13.89" length="733.20" shape="742.00,733.20 742.00,0.00"/>
        <lane id="TL2S_2" index="2" speed="13.89" length="733.20" shape="745.20,733.20 745.20,0.00"/>
        <lane id="TL2S_3" index="3" speed="13.89" length="733.20" shape="748.40,733.20 748.40,0.00"/>
    </edge>
    <edge id="TL2W" from="TL" to="DW" priority="-1">
        <lane id="TL2W_0" index="0" speed="13.89" length="733.20" shape="733.20,761.20 0.00,761.20"/>
        <lane id="TL2W_1" index="1" speed="13.89" length="733.20" shape="733.20,758.00 0.00,758.00"/>
        <lane id="TL2W_2" index="2" speed="13.89" length="733.20" shape="733.20,754.80 0.00,754.80"/>
        <lane id="TL2W_3" index="3" speed="13.89" length="733.20" shape="733.20,751.60 0.00,751.60"/>
    </edge>
    <edge id="W2TL" from="DW" to="TL" priority="-1">
        <lane id="W2TL_0" index="0" speed="13.89" length="733.20" shape="0.00,738.80 733.20,738.80"/>
        <lane id="W2TL_1" index="1" speed="13.89" length="733.20" shape="0.00,742.00 733.20,742.00"/>
        <lane id="W2TL_2" index="2" speed="13.89" length="733.20" shape="0.00,745.20 733.20,745.20"/>
        <lane id="W2TL_3" index="3" speed="13.89" length="733.20" shape="0.00,748.40 733.20,748.40"/>
    </edge>

    <tlLogic id="2_TL" type="static" programID="0" offset="0">
        <phase duration="42" state="GGGGGggrrrrrrrGGGGGggrrrrrrr"/>
        <phase duration="3"  state="yyyyyyyrrrrrrryyyyyyyrrrrrrr"/>
        <phase duration="42" state="rrrrrrrGGGGGggrrrrrrrGGGGGgg"/>
        <phase duration="3"  state="rrrrrrryyyyyyyrrrrrrryyyyyyy"/>
    </tlLogic>
    <tlLogic id="TL" type="static" programID="0" offset="0">
        <phase duration="42" state="GGGGGggrrrrrrrGGGGGggrrrrrrr"/>
        <phase duration="3"  state="yyyyyyyrrrrrrryyyyyyyrrrrrrr"/>
        <phase duration="42" state="rrrrrrrGGGGGggrrrrrrrGGGGGgg"/>
        <phase duration="3"  state="rrrrrrryyyyyyyrrrrrrryyyyyyy"/>
    </tlLogic>

    <junction id="2_DN" type="priority" x="1500.00" y="1500.00" incLanes="2_TL2N_0 2_TL2N_1 2_TL2N_2 2_TL2N_3" intLanes=":2_DN_0_0" shape="1500.00,1500.00 1512.80,1500.00 1500.00,1500.00">
        <request index="0" response="0" foes="0" cont="0"/>
    </junction>
    <junction id="2_DS" type="priority" x="1500.00" y="0.00" incLanes="2_TL2S_0 2_TL2S_1 2_TL2S_2 2_TL2S_3" intLanes=":2_DS_0_0" shape="1500.00,0.00 1487.20,0.00 1500.00,0.00">
        <request index="0" response="0" foes="0" cont="0"/>
    </junction>
    <junction id="2_TL" type="traffic_light" x="1500.00" y="750.00" incLanes="2_N2TL_0 2_N2TL_1 2_N2TL_2 2_N2TL_3 2_E2TL_0 2_E2TL_1 2_E2TL_2 2_E2TL_3 2_S2TL_0 2_S2TL_1 2_S2TL_2 2_S2TL_3 TL2E_0 TL2E_1 TL2E_2 TL2E_3" intLanes=":2_TL_0_0 :2_TL_1_0 :2_TL_1_1 :2_TL_1_2 :2_TL_1_3 :2_TL_28_0 :2_TL_29_0 :2_TL_7_0 :2_TL_8_0 :2_TL_8_1 :2_TL_8_2 :2_TL_8_3 :2_TL_30_0 :2_TL_31_0 :2_TL_14_0 :2_TL_15_0 :2_TL_15_1 :2_TL_15_2 :2_TL_15_3 :2_TL_32_0 :2_TL_33_0 :2_TL_21_0 :2_TL_22_0 :2_TL_22_1 :2_TL_22_2 :2_TL_22_3 :2_TL_34_0 :2_TL_35_0" shape="1487.20,766.80 1512.80,766.80 1513.24,764.58 1513.80,763.80 1514.58,763.24 1515.58,762.91 1516.80,762.80 1516.80,737.20 1514.58,736.76 1513.80,736.20 1513.24,735.42 1512.91,734.42 1512.80,733.20 1487.20,733.20 1486.76,735.42 1486.20,736.20 1485.42,736.76 1484.42,737.09 1483.20,737.20 1483.20,762.80 1485.42,763.24 1486.20,763.80 1486.76,764.58 1487.09,765.58">
        <request index="0"  response="0000000000000000000000000000" foes="0000000000000000111100000000" cont="0"/>
        <request index="1"  response="0100000000000001000000000000" foes="0111111110000001111100000000" cont="0"/>
        <request index="2"  response="0100000000000001000000000000" foes="0111111110000001111100000000" cont="0"/>
        <request index="3"  response="0100000000000001000000000000" foes="0111111110000001111100000000" cont="0"/>
        <request index="4"  response="0100000000000001000000000000" foes="0111111110000001111100000000" cont="0"/>
        <request index="5"  response="0100000001111001000000000000" foes="0111110001111011111100000000" cont="1"/>
        <request index="6"  response="0100000001111000000000000000" foes="0100000001111000000000000000" cont="1"/>
        <request index="7"  response="0000000001111000000000000000" foes="0000000001111000000000000000" cont="0"/>
        <request index="8"  response="0000000011111000000000111111" foes="1100000011111000000000111111" cont="0"/>
        <request index="9"  response="0000000011111000000000111111" foes="1100000011111000000000111111" cont="0"/>
        <request index="10" response="0000000011111000000000111111" foes="1100000011111000000000111111" cont="0"/>
        <request index="11" response="0000000011111000000000111111" foes="1100000011111000000000111111" cont="0"/>
        <request index="12" response="0011110011111000000000111110" foes="0011110111111000000000111110" cont="1"/>
        <request index="13" response="0011110000000000000000100000" foes="0011110000000000000000100000" cont="1"/>
        <request index="14" response="0000000000000000000000000000" foes="0011110000000000000000000000" cont="0"/>
        <request index="15" response="0100000000000001000000000000" foes="0111110000000001111111100000" cont="0"/>
        <request index="16" response="0100000000000001000000000000" foes="0111110000000001111111100000" cont="0"/>
        <request index="17" response="0100000000000001000000000000" foes="0111110000000001111111100000" cont="0"/>
        <request index="18" response="0100000000000001000000000000" foes="0111110000000001111111100000" cont="0"/>
        <request index="19" response="0100000000000001000000011110" foes="1111110000000001111100011110" cont="1"/>
        <request index="20" response="0000000000000001000000011110" foes="0000000000000001000000011110" cont="1"/>
        <request index="21" response="0000000000000000000000011110" foes="0000000000000000000000011110" cont="0"/>
        <request index="22" response="0000000011111100000000111110" foes="0000000011111111000000111110" cont="0"/>
        <request index="23" response="0000000011111100000000111110" foes="0000000011111111000000111110" cont="0"/>
        <request index="24" response="0000000011111100000000111110" foes="0000000011111111000000111110" cont="0"/>
        <request index="25" response="0000000011111100000000111110" foes="0000000011111111000000111110" cont="0"/>
        <request index="26" response="0000000011111000111100111110" foes="0000000011111000111101111110" cont="1"/>
        <request index="27" response="0000000010000000111100000000" foes="0000000010000000111100000000" cont="1"/>
    </junction>
    <junction id="DE" type="priority" x="2250.00" y="750.00" incLanes="2_TL2E_0 2_TL2E_1 2_TL2E_2 2_TL2E_3" intLanes=":DE_0_0" shape="2250.00,750.00 2250.00,737.20 2250.00,750.00">
        <request index="0" response="0" foes="0" cont="0"/>
    </junction>
    <junction id="DN" type="priority" x="750.00" y="1500.00" incLanes="TL2N_0 TL2N_1 TL2N_2 TL2N_3" intLanes=":DN_0_0" shape="750.00,1500.00 762.80,1500.00 750.00,1500.00">
        <request index="0" response="0" foes="0" cont="0"/>
    </junction>
    <junction id="DS" type="priority" x="750.00" y="0.00" incLanes="TL2S_0 TL2S_1 TL2S_2 TL2S_3" intLanes=":DS_0_0" shape="750.00,0.00 737.20,0.00 750.00,0.00">
        <request index="0" response="0" foes="0" cont="0"/>
    </junction>
    <junction id="DW" type="priority" x="0.00" y="750.00" incLanes="TL2W_0 TL2W_1 TL2W_2 TL2W_3" intLanes=":DW_0_0" shape="0.00,750.00 0.00,762.80 0.00,750.00">
        <request index="0" response="0" foes="0" cont="0"/>
    </junction>
    <junction id="TL" type="traffic_light" x="750.00" y="750.00" incLanes="N2TL_0 N2TL_1 N2TL_2 N2TL_3 2_TL2W_0 2_TL2W_1 2_TL2W_2 2_TL2W_3 S2TL_0 S2TL_1 S2TL_2 S2TL_3 W2TL_0 W2TL_1 W2TL_2 W2TL_3" intLanes=":TL_0_0 :TL_1_0 :TL_1_1 :TL_1_2 :TL_1_3 :TL_28_0 :TL_29_0 :TL_7_0 :TL_8_0 :TL_8_1 :TL_8_2 :TL_8_3 :TL_30_0 :TL_31_0 :TL_14_0 :TL_15_0 :TL_15_1 :TL_15_2 :TL_15_3 :TL_32_0 :TL_33_0 :TL_21_0 :TL_22_0 :TL_22_1 :TL_22_2 :TL_22_3 :TL_34_0 :TL_35_0" shape="737.20,766.80 762.80,766.80 763.24,764.58 763.80,763.80 764.58,763.24 765.58,762.91 766.80,762.80 766.80,737.20 764.58,736.76 763.80,736.20 763.24,735.42 762.91,734.42 762.80,733.20 737.20,733.20 736.76,735.42 736.20,736.20 735.42,736.76 734.42,737.09 733.20,737.20 733.20,762.80 735.42,763.24 736.20,763.80 736.76,764.58 737.09,765.58">
        <request index="0"  response="0000000000000000000000000000" foes="0000000000000000111100000000" cont="0"/>
        <request index="1"  response="0100000000000001000000000000" foes="0111111110000001111100000000" cont="0"/>
        <request index="2"  response="0100000000000001000000000000" foes="0111111110000001111100000000" cont="0"/>
        <request index="3"  response="0100000000000001000000000000" foes="0111111110000001111100000000" cont="0"/>
        <request index="4"  response="0100000000000001000000000000" foes="0111111110000001111100000000" cont="0"/>
        <request index="5"  response="0100000001111001000000000000" foes="0111110001111011111100000000" cont="1"/>
        <request index="6"  response="0100000001111000000000000000" foes="0100000001111000000000000000" cont="1"/>
        <request index="7"  response="0000000001111000000000000000" foes="0000000001111000000000000000" cont="0"/>
        <request index="8"  response="0000000011111000000000111111" foes="1100000011111000000000111111" cont="0"/>
        <request index="9"  response="0000000011111000000000111111" foes="1100000011111000000000111111" cont="0"/>
        <request index="10" response="0000000011111000000000111111" foes="1100000011111000000000111111" cont="0"/>
        <request index="11" response="0000000011111000000000111111" foes="1100000011111000000000111111" cont="0"/>
        <request index="12" response="0011110011111000000000111110" foes="0011110111111000000000111110" cont="1"/>
        <request index="13" response="0011110000000000000000100000" foes="0011110000000000000000100000" cont="1"/>
        <request index="14" response="0000000000000000000000000000" foes="0011110000000000000000000000" cont="0"/>
        <request index="15" response="0100000000000001000000000000" foes="0111110000000001111111100000" cont="0"/>
        <request index="16" response="0100000000000001000000000000" foes="0111110000000001111111100000" cont="0"/>
        <request index="17" response="0100000000000001000000000000" foes="0111110000000001111111100000" cont="0"/>
        <request index="18" response="0100000000000001000000000000" foes="0111110000000001111111100000" cont="0"/>
        <request index="19" response="0100000000000001000000011110" foes="1111110000000001111100011110" cont="1"/>
        <request index="20" response="0000000000000001000000011110" foes="0000000000000001000000011110" cont="1"/>
        <request index="21" response="0000000000000000000000011110" foes="0000000000000000000000011110" cont="0"/>
        <request index="22" response="0000000011111100000000111110" foes="0000000011111111000000111110" cont="0"/>