<routes>
            <vType id="emergency" accel="3.0" decel="6.0" color="1,0,0" maxSpeed="20" sigma="0.5" emergency="true" />
            <vType id="standard_car" accel="1.0" decel="4.5" length="5.0" minGap="2.5" maxSpeed="25" sigma="0.5" />
            <route id="E_W" edges="2_E2TL 2_TL2W TL2W" />
            <route id="W_E" edges="W2TL TL2E 2_TL2E" />
            <route id="N_S_1" edges="2_N2TL 2_TL2S" />
            <route id="N_S_2" edges="N2TL TL2S" />
            <route id="S_N_1" edges="S2TL TL2N" />
            <route id="S_N_2" edges="2_S2TL 2_TL2N" />
            <route id="N_W" edges="2_N2TL 2_TL2W" />
            <route id="S_E" edges="S2TL TL2E" />
            <route id="E_N" edges="2_E2TL 2_TL2N" />
            <route id="W_S" edges="W2TL TL2E 2_TL2S" />
    <vehicle id="N_W_0" type="standard_car" route="N_W" depart="57" departLane="random" departSpeed="10" />
    <vehicle id="emergency_0" type="emergency" route="S_N_1" depart="71" departLane="random" departSpeed="10" />
    <vehicle id="S_N_2_1" type="standard_car" route="S_N_2" depart="76" departLane="random" departSpeed="10" />
    <vehicle id="emergency_1" type="emergency" route="S_E" depart="76" departLane="random" departSpeed="10" />
    <vehicle id="E_W_2" type="standard_car" route="E_W" depart="98" departLane="random" departSpeed="10" />
    <vehicle id="S_E_3" type="standard_car" route="S_E" depart="102" departLane="random" departSpeed="10" />
    <vehicle id="N_S_2_4" type="standard_car" route="N_S_2" depart="106" departLane="random" departSpeed="10" />
    <vehicle id="S_N_1_5" type="standard_car" route="S_N_1" depart="108" departLane="random" departSpeed="10" />
    <vehicle id="E_N_6" type="standard_car" route="E_N" depart="114" departLane="random" departSpeed="10" />
    <vehicle id="W_S_7" type="standard_car" route="W_S" depart="118" departLane="random" departSpeed="10" />
    <vehicle id="W_E_8" type="standard_car" route="W_E" depart="125" departLane="random" departSpeed="10" />
    <vehicle id="N_S_1_9" type="standard_car" route="N_S_1" depart="131" departLane="random" departSpeed="10" />
    <vehicle id="E_N_10" type="standard_car" route="E_N" depart="144" departLane="random" departSpeed="10" />
    <vehicle id="N_S_1_11" type="standard_car" route="N_S_1" depart="159" departLane="random" departSpeed="10" />
    <vehicle id="W_S_12" type="standard_car" route="W_S" depart="170" departLane="random" departSpeed="10" />
    <vehicle id="S_N_2_13" type="standard_car" route="S_N_2" depart="172" departLane="random" departSpeed="10" />
    <vehicle id="W_E_14" type="standard_car" route="W_E" depart="183" departLane="random" departSpeed="10" />
    <vehicle id="emergency_2" type="emergency" route="S_N_1" depart="183" departLane="random" departSpeed="10" />
    <vehicle id="E_N_15" type="standard_car" route="E_N" depart="190" departLane="random" departSpeed="10" />
    <vehicle id="E_W_16" type="standard_car" route="E_W" depart="198" departLane="random" departSpeed="10" />
    <vehicle id="W_S_17" type="standard_car" route="W_S" depart="210" departLane="random" departSpeed="10" />
    <vehicle id="N_S_2_18" type="standard_car" route="N_S_2" depart="210" departLane="random" departSpeed="10" />
    <vehicle id="W_S_19" type="standard_car" route="W_S" depart="213" departLane="random" departSpeed="10" />
    <vehicle id="S_N_1_20" type="standard_car" route="S_N_1" depart="217" departLane="random" departSpeed="10" />
    <vehicle id="E_N_21" type="standard_car" route="E_N" depart="222" departLane="random" departSpeed="10" />
    <vehicle id="emergency_3" type="emergency" route="N_W" depart="223" departLane="random" departSpeed="10" />
    <vehicle id="N_W_22" type="standard_car" route="N_W" depart="230" departLane="random" departSpeed="10" />
    <vehicle id="N_S_2_23" type="standard_car" route="N_S_2" depart="232" departLane="random" departSpeed="10" />
    <vehicle id="N_W_24" type="standard_car" route="N_W" depart="233" departLane="random" departSpeed="10" />
    <vehicle id="N_S_1_25" type="standard_car" route="N_S_1" depart="234" departLane="random" departSpeed="10" />
    <vehicle id="E_N_26" type="standard_car" route="E_N" depart="235" departLane="random" departSpeed="10" />
    <vehicle id="S_N_2_27" type="standard_car" route="S_N_2" depart="238" departLane="random" departSpeed="10" />
    <vehicle id="S_N_2_28" type="standard_car" route="S_N_2" depart="239" departLane="random" departSpeed="10" />
    <vehicle id="emergency_4" type="emergency" route="E_W" depart="249" departLane="random" departSpeed="10" />
    <vehicle id="W_E_29" type="standard_car" route="W_E" depart="253" departLane="random" departSpeed="10" />
    <vehicle id="E_N_30" type="standard_car" route="E_N" depart="257" departLane="random" departSpeed="10" />
    <vehicle id="S_N_1_31" type="standard_car" route="S_N_1" depart="261" departLane="random" departSpeed="10" />
    <vehicle id="E_W_32" type="standard_car" route="E_W" depart="266" departLane="random" departSpeed="10" />
    <vehicle id="E_W_33" type="standard_car" route="E_W" depart="268" departLane="random" departSpeed="10" />
    <vehicle id="N_S_2_34" type="standard_car" route="N_S_2" depart="272" departLane="random" departSpeed="10" />
    <vehicle id="S_N_2_35" type="standard_car" route="S_N_2" depart="272" departLane="random" departSpeed="10" />
    <vehicle id="N_S_2_36" type="standard_car" route="N_S_2" depart="274" departLane="random" departSpeed="10" />
    <vehicle id="S_N_2_37" type="standard_car" route="S_N_2" depart="276" departLane="random" departSpeed="10" />
    <vehicle id="S_N_1_38" type="standard_car" route="S_N_1" depart="277" departLane="random" departSpeed="10" />
    <vehicle id="S_N_1_39" type="standard_car" route="S_N_1" depart="279" departLane="random" departSpeed="10" />
    <vehicle id="W_E_40" type="standard_car" route="W_E" depart="281" departLane="random" departSpeed="10" />
    <vehicle id="W_S_41" type="standard_car" route="W_S" depart="283" departLane="random" departSpeed="10" />
    <vehicle id="N_S_1_42" type="standard_car" route="N_S_1" depart="286" departLane="random" departSpeed="10" />
    <vehicle id="N_S_2_43" type="standard_car" route="N_S_2" depart="290" departLane="random" departSpeed="10" />
    <vehicle id="N_S_2_44" type="standard_car" route="N_S_2" depart="295" departLane="random" departSpeed="10" />
    <vehicle id="S_N_2_45" type="standard_car" route="S_N_2" depart="301" departLane="random" departSpeed="10" />
    <vehicle id="W_E_46" type="standard_car" route="W_E" depart="302" departLane="random" departSpeed="10" />
    <vehicle id="S_N_1_47" type="standard_car" route="S_N_1" depart="303" departLane="random" departSpeed="10" />
    <vehicle id="N_S_1_48" type="standard_car" route="N_S_1" depart="307" departLane="random" departSpeed="10" />
    <vehicle id="W_E_49" type="standard_car" route="W_E" depart="313" departLane="random" departSpeed="10" />
    <vehicle id="N_W_50" type="standard_car" route="N_W" depart="313" departLane="random" departSpeed="10" />
    <vehicle id="S_N_2_51" type="standard_car" route="S_N_2" depart="319" departLane="random" departSpeed="10" />
    <vehicle id="N_S_2_52" type="standard_car" route="N_S_2" depart="323" departLane="random" departSpeed="10" />
    <vehicle id="W_E_53" type="standard_car" route="W_E" depart="323" departLane="random" departSpeed="10" />
    <vehicle id="S_N_1_54" type="standard_car" route="S_N_1" depart="324" departLane="random" departSpeed="10" />
    <vehicle id="S_N_2_55" type="standard_car" route="S_N_2" depart="331" departLane="random" departSpeed="10" />
    <vehicle id="S_N_1_56" type="standard_car" route="S_N_1" depart="333" departLane="random" departSpeed="10" />
    <vehicle id="N_S_1_57" type="standard_car" route="N_S_1" depart="334" departLane="random" departSpeed="10" />
    <vehicle id="emergency_5" type="emergency" route="W_E" depart="334" departLane="random" departSpeed="10" />
    <vehicle id="N_S_1_58" type="standard_car" route="N_S_1" depart="335" departLane="random" departSpeed="10" />
    <vehicle id="E_W_59" type="standard_car" route="E_W" depart="335" departLane="random" departSpeed="10" />
    <vehicle id="N_W_60" type="standard_car" route="N_W" depart="341" departLane="random" departSpeed="10" />
    <vehicle id="E_N_61" type="standard_car" route="E_N" depart="344" departLane="random" departSpeed="10" />
    <vehicle id="S_N_1_62" type="standard_car" route="S_N_1" depart="345" departLane="random" departSpeed="10" />
    <vehicle id="N_S_2_63" type="standard_car" route="N_S_2" depart="352" departLane="random" departSpeed="10" />
    <vehicle id="N_S_2_64" type="standard_car" route="N_S_2" depart="353" departLane="random" departSpeed="10" />
    <vehicle id="S_N_1_65" type="standard_car" route="S_N_1" depart="355" departLane="random" departSpeed="10" />
    <vehicle id="N_S_1_66" type="standard_car" route="N_S_1" depart="357" departLane="random" departSpeed="10" />
    <vehicle id="N_S_1_67" type="standard_car" route="N_S_1" depart="364" departLane="random" departSpeed="10" />
    <vehicle id="emergency_6" type="emergency" route="E_N" depart="364" departLane="random" departSpeed="10" />
    <vehicle id="S_N_1_68" type="standard_car" route="S_N_1" depart="367" departLane="random" departSpeed="10" />
    <vehicle id="E_N_69" type="standard_car" route="E_N" depart="373" departLane="random" departSpeed="10" />
    <vehicle id="S_E_70" type="standard_car" route="S_E" depart="374" departLane="random" departSpeed="10" />
    <vehicle id="W_E_71" type="standard_car" route="W_E" depart="382" departLane="random" departSpeed="10" />
    <vehicle id="N_S_2_72" type="standard_car" route="N_S_2" depart="383" departLane="random" departSpeed="10" />
    <vehicle id="N_S_2_73" type="standard_car" route="N_S_2" depart="383" departLane="random" departSpeed="10" />
    <vehicle id="N_S_2_74" type="standard_car" route="N_S_2" depart="384" departLane="random" departSpeed="10" />
    <vehicle id="S_E_75" type="standard_car" route="S_E" depart="386" departLane="random" departSpeed="10" />
    <vehicle id="E_W_76" type="standard_car" route="E_W" depart="391" departLane="random" departSpeed="10" />
    <vehicle id="S_N_2_77" type="standard_car" route="S_N_2" depart="392" departLane="random" departSpeed="10" />
    <vehicle id="E_N_78" type="standard_car" route="E_N" depart="393" departLane="random" departSpeed="10" />
    <vehicle id="W_S_79" type="standard_car" route="W_S" depart="394" departLane="random" departSpeed="10" />
    <vehicle id="N_W_80" type="standard_car" route="N_W" depart="395" departLane="random" departSpeed="10" />
    <vehicle id="N_S_2_81" type="standard_car" route="N_S_2" depart="397" departLane="random" departSpeed="10" />
    <vehicle id="W_E_82" type="standard_car" route="W_E" depart="398" departLane="random" departSpeed="10" />
    <vehicle id="N_W_83" type="standard_car" route="N_W" depart="398" departLane="random" departSpeed="10" />
    <vehicle id="N_S_1_84" type="standard_car" route="N_S_1" depart="399" departLane="random" departSpeed="10" />
    <vehicle id="W_E_85" type="standard_car" route="W_E" depart="402" departLane="random" departSpeed="10" />
    <vehicle id="S_N_2_86" type="standard_car" route="S_N_2" depart="405" departLane="random" departSpeed="10" />
    <vehicle id="S_E_87" type="standard_car" route="S_E" depart="407" departLane="random" departSpeed="10" />
    <vehicle id="W_E_88" type="standard_car" route="W_E" depart="414" departLane="random" departSpeed="10" />
    <vehicle id="S_E_89" type="standard_car" route="S_E" depart="415" departLane="random" departSpeed="10" />
    <vehicle id="E_W_90" type="standard_car" route="E_W" depart="420" departLane="random" departSpeed="10" />
    <vehicle id="W_S_91" type="standard_car" route="W_S" depart="421" departLane="random" departSpeed="10" />
    <vehicle id="N_S_1_92" type="standard_car" route="N_S_1" depart="424" departLane="random" departSpeed="10" />
    <vehicle id="N_S_1_93" type="standard_car" route="N_S_1" depart="426" departLane="random" departSpeed="10" />
    <vehicle id="W_E_94" type="standard_car" route="W_E" depart="430" departLane="random" departSpeed="10" />
    <vehicle id="S_E_95" type="standard_car" route="S_E" depart="435" departLane="random" departSpeed="10" />
    <vehicle id="S_N_2_96" type="standard_car" route="S_N_2" depart="435" departLane="random" departSpeed="10" />
    <vehicle id="S_N_2_97" type="standard_car" route="S_N_2" depart="439" departLane="random" departSpeed="10" />
    <vehicle id="E_N_98" type="standard_car" route="E_N" depart="440" departLane="random" departSpeed="10" />
    <vehicle id="N_S_1_99" type="standard_car" route="N_S_1" depart="441" departLane="random" departSpeed="10" />
    <vehicle id="S_E_100" type="standard_car" route="S_E" depart="441" departLane="random" departSpeed="10" />
    <vehicle id="W_E_101" type="standard_car" route="W_E" depart="442" departLane="random" departSpeed="10" />
    <vehicle id="S_N_2_102" type="standard_car" route="S_N_2" depart="444" departLane="random" departSpeed="10" />
    <vehicle id="W_E_103" type="standard_car" route="W_E" depart="445" departLane="random" departSpeed="10" />
    <vehicle id="S_N_1_104" type="standard_car" route="S_N_1" depart="446" departLane="random" departSpeed="10" />
    <vehicle id="N_W_105" type="standard_car" route="N_W" depart="447" departLane="random" departSpeed="10" />
    <vehicle id="N_S_2_106" type="standard_car" route="N_S_2" depart="448" departLane="random" departSpeed="10" />
    <vehicle id="E_W_107" type="standard_car" route="E_W" depart="449" departLane="random" departSpeed="10" />
    <vehicle id="S_N_2_108" type="standard_car" route="S_N_2" depart="449" departLane="random" departSpeed="10" />
    <vehicle id="E_W_109" type="standard_car" route="E_W" depart="452" departLane="random" departSpeed="10" />
    <vehicle id="S_N_1_110" type="standard_car" route="S_N_1" depart="455" departLane="random" departSpeed="10" />
    <vehicle id="W_E_111" type="standard_car" route="W_E" depart="455" departLane="random" departSpeed="10" />
    <vehicle id="W_S_112" type="standard_car" route="W_S" depart="456" departLane="random" departSpeed="10" />
    <vehicle id="W_E_113" type="standard_car" route="W_E" depart="456" departLane="random" departSpeed="10" />
    <vehicle id="S_N_2_114" type="standard_car" route="S_N_2" depart="457" departLane="random" departSpeed="10" />
    <vehicle id="S_N_2_115" type="standard_car" route="S_N_2" depart="457" departLane="random" departSpeed="10" />
    <vehicle id="N_S_1_116" type="standard_car" route="N_S_1" depart="458" departLane="random" departSpeed="10" />
    <vehicle id="N_S_2_117" type="standard_car" route="N_S_2" depart="458" departLane="random" departSpeed="10" />
    <vehicle id="N_S_2_118" type="standard_car" route="N_S_2" depart="459" departLane="random" departSpeed="10" />
    <vehicle id="N_W_119" type="standard_car" route="N_W" depart="462" departLane="random" departSpeed="10" />
    <vehicle id="N_S_2_120" type="standard_car" route="N_S_2" depart="464" departLane="random" departSpeed="10" />
    <vehicle id="S_N_2_121" type="standard_car" route="S_N_2" depart="466" departLane="random" departSpeed="10" />
    <vehicle id="W_E_122" type="standard_car" route="W_E" depart="467" departLane="random" departSpeed="10" />
    <vehicle id="S_N_2_123" type="standard_car" route="S_N_2" depart="468" departLane="random" departSpeed="10" />
    <vehicle id="N_S_2_124" type="standard_car" route="N_S_2" depart="468" departLane="random" departSpeed="10" />
    <vehicle id="N_S_2_125" type="standard_car" route="N_S_2" depart="468" departLane="random" departSpeed="10" />
    <vehicle id="W_E_126" type="standard_car" route="W_E" depart="471" departLane="random" departSpeed="10" />
    <vehicle id="W_S_127" type="standard_car" route="W_S" depart="472" departLane="random" departSpeed="10" />
    <vehicle id="W_E_128" type="standard_car" route="W_E" depart="472" departLane="random" departSpeed="10" />
    <vehicle id="S_N_1_129" type="standard_car" route="S_N_1" depart="473" departLane="random" departSpeed="10" />
    <vehicle id="E_N_130" type="standard_car" route="E_N" depart="473" departLane="random" departSpeed="10" />
    <vehicle id="S_E_131" type="standard_car" route="S_E" depart="475" departLane="random" departSpeed="10" />
    <vehicle id="emergency_7" type="emergency" route="E_W" depart="475" departLane="random" departSpeed="10" />
    <vehicle id="N_S_2_132" type="standard_car" route="N_S_2" depart="480" departLane="random" departSpeed="10" />
    <vehicle id="N_S_1_133" type="standard_car" route="N_S_1" depart="483" departLane="random" departSpeed="10" />
    <vehicle id="E_W_134" type="standard_car" route="E_W" depart="485" departLane="random" departSpeed="10" />
    <vehicle id="N_S_2_135" type="standard_car" route="N_S_2" depart="487" departLane="random" departSpeed="10" />
    <vehicle id="W_E_136" type="standard_car" route="W_E" depart="489" departLane="random" departSpeed="10" />
    <vehicle id="N_S_1_137" type="standard_car" route="N_S_1" depart="489" departLane="random" departSpeed="10" />
    <vehicle id="N_S_1_138" type="standard_car" route="N_S_1" depart="493" departLane="random" departSpeed="10" />
    <vehicle id="E_W_139" type="standard_car" route="E_W" depart="493" departLane="random" departSpeed="10" />
    <vehicle id="S_E_140" type="standard_car" route="S_E" depart="499" departLane="random" departSpeed="10" />
    <vehicle id="S_N_2_141" type="standard_car" route="S_N_2" depart="500" departLane="random" departSpeed="10" />
    <vehicle id="W_S_142" type="standard_car" route="W_S" depart="501" departLane="random" departSpeed="10" />
    <vehicle id="N_W_143" type="standard_car" route="N_W" depart="501" departLane="random" departSpeed="10" />
    <vehicle id="N_S_2_144" type="standard_car" route="N_S_2" depart="502" departLane="random" departSpeed="10" />
    <vehicle id="N_S_2_145" type="standard_car" route="N_S_2" depart="504" departLane="random" departSpeed="10" />
    <vehicle id="S_N_2_146" type="standard_car" route="S_N_2" depart="509" departLane="random" departSpeed="10" />
    <vehicle id="S_N_2_147" type="standard_car" route="S_N_2" depart="510" departLane="random" departSpeed="10" />
    <vehicle id="W_S_148" type="standard_car" route="W_S" depart="510" departLane="random" departSpeed="10" />
    <vehicle id="S_N_1_149" type="standard_car" route="S_N_1" depart="510" departLane="random" departSpeed="10" />
    <vehicle id="N_S_1_150" type="standard_car" route="N_S_1" depart="512" departLane="random" departSpeed="10" />
    <vehicle id="W_S_151" type="standard_car" route="W_S" depart="512" departLane="random" departSpeed="10" />
    <vehicle id="S_E_152" type="standard_car" route="S_E" depart="514" departLane="random" departSpeed="10" />
    <vehicle id="N_S_2_153" type="standard_car" route="N_S_2" depart="514" departLane="random" departSpeed="10" />
    <vehicle id="N_S_1_154" type="standard_car" route="N_S_1" depart="515" departLane="random" departSpeed="10" />
    <vehicle id="S_E_155" type="standard_car" route="S_E" depart="515" departLane="random" departSpeed="10" />
    <vehicle id="W_E_156" type="standard_car" route="W_E" depart="516" departLane="random" departSpeed="10" />
    <vehicle id="W_S_157" type="standard_car" route="W_S" depart="523" departLane="random" departSpeed="10" />
    <vehicle id="emergency_8" type="emergency" route="W_E" depart="523" departLane="random" departSpeed="10" />
    <vehicle id="S_N_2_158" type="standard_car" route="S_N_2" depart="524" departLane="random" departSpeed="10" />
    <vehicle id="E_N_159" type="standard_car" route="E_N" depart="524" departLane="random" departSpeed="10" />
    <vehicle id="N_S_2_160" type="standard_car" route="N_S_2" depart="526" departLane="random" departSpeed="10" />
    <vehicle id="N_S_1_161" type="standard_car" route="N_S_1" depart="527" departLane="random" departSpeed="10" />
    <vehicle id="emergency_9" type="emergency" route="S_N_1" depart="527" departLane="random" departSpeed="10" />
    <vehicle id="S_N_2_162" type="standard_car" route="S_N_2" depart="529" departLane="random" departSpeed="10" />
    <vehicle id="W_S_163" type="standard_car" route="W_S" depart="533" departLane="random" departSpeed="10" />
    <vehicle id="E_N_164" type="standard_car" route="E_N" depart="534" departLane="random" departSpeed="10" />
    <vehicle id="W_E_165" type="standard_car" route="W_E" depart="540" departLane="random" departSpeed="10" />
    <vehicle id="W_E_166" type="standard_car" route="W_E" depart="540" departLane="random" departSpeed="10" />
    <vehicle id="W_S_167" type="standard_car" route="W_S" depart="542" departLane="random" departSpeed="10" />
    <vehicle id="E_N_168" type="standard_car" route="E_N" depart="542" departLane="random" departSpeed="10" />
    <vehicle id="N_S_2_169" type="standard_car" route="N_S_2" depart="542" departLane="random" departSpeed="10" />
    <vehicle id="emergency_10" type="emergency" route="E_W" depart="543" departLane="random" departSpeed="10" />
    <vehicle id="W_S_170" type="standard_car" route="W_S" depart="545" departLane="random" departSpeed="10" />
    <vehicle id="W_E_171" type="standard_car" route="W_E" depart="547" departLane="random" departSpeed="10" />
    <vehicle id="N_S_2_172" type="standard_car" route="N_S_2" depart="547" departLane="random" departSpeed="10" />
    <vehicle id="N_S_1_173" type="standard_car" route="N_S_1" depart="549" departLane="random" departSpeed="10" />
    <vehicle id="S_N_1_174" type="standard_car" route="S_N_1" depart="552" departLane="random" departSpeed="10" />
    <vehicle id="N_S_1_175" type="standard_car" route="N_S_1" depart="554" departLane="random" departSpeed="10" />
    <vehicle id="N_S_2_176" type="standard_car" route="N_S_2" depart="554" departLane="random" departSpeed="10" />
    <vehicle id="N_S_1_177" type="standard_car" route="N_S_1" depart="555" departLane="random" departSpeed="10" />
    <vehicle id="W_E_178" type="standard_car" route="W_E" depart="557" departLane="random" departSpeed="10" />
    <vehicle id="N_S_1_179" type="standard_car" route="N_S_1" depart="557" departLane="random" departSpeed="10" />
    <vehicle id="N_W_180" type="standard_car" route="N_W" depart="559" departLane="random" departSpeed="10" />
    <vehicle id="W_E_181" type="standard_car" route="W_E" depart="559" departLane="random" departSpeed="10" />
    <vehicle id="N_W_182" type="standard_car" route="N_W" depart="567" departLane="random" departSpeed="10" />
    <vehicle id="W_E_183" type="standard_car" route="W_E" depart="570" departLane="random" departSpeed="10" />
    <vehicle id="N_S_1_184" type="standard_car" route="N_S_1" depart="571" departLane="random" departSpeed="10" />
    <vehicle id="E_W_185" type="standard_car" route="E_W" depart="572" departLane="random" departSpeed="10" />
    <vehicle id="S_E_186" type="standard_car" route="S_E" depart="572" departLane="random" departSpeed="10" />
    <vehicle id="W_S_187" type="standard_car" route="W_S" depart="575" departLane="random" departSpeed="10" />
    <vehicle id="N_S_2_188" type="standard_car" route="N_S_2" depart="576" departLane="random" departSpeed="10" />
    <vehicle id="E_W_189" type="standard_car" route="E_W" depart="577" departLane="random" departSpeed="10" />
    <vehicle id="W_S_190" type="standard_car" route="W_S" depart="578" departLane="random" departSpeed="10" />
    <vehicle id="N_S_1_191" type="standard_car" route="N_S_1" depart="578" departLane="random" departSpeed="10" />
    <vehicle id="N_S_2_192" type="standard_car" route="N_S_2" depart="579" departLane="random" departSpeed="10" />
    <vehicle id="E_W_193" type="standard_car" route="E_W" depart="581" departLane="random" departSpeed="10" />
    <vehicle id="S_N_1_194" type="standard_car" route="S_N_1" depart="585" departLane="random" departSpeed="10" />
    <vehicle id="S_E_195" type="standard_car" route="S_E" depart="589" departLane="random" departSpeed="10" />
    <vehicle id="S_N_2_196" type="standard_car" route="S_N_2" depart="589" departLane="random" departSpeed="10" />
    <vehicle id="N_S_1_197" type="standard_car" route="N_S_1" depart="589" departLane="random" departSpeed="10" />
    <vehicle id="emergency_11" type="emergency" route="N_S_2" depart="589" departLane="random" departSpeed="10" />
    <vehicle id="E_W_198" type="standard_car" route="E_W" depart="590" departLane="random" departSpeed="10" />
    <vehicle id="W_E_199" type="standard_car" route="W_E" depart="591" departLane="random" departSpeed="10" />
    <vehicle id="S_N_1_200" type="standard_car" route="S_N_1" depart="596" departLane="random" departSpeed="10" />
    <vehicle id="N_S_1_201" type="standard_car" route="N_S_1" depart="598" departLane="random" departSpeed="10" />
    <vehicle id="S_N_2_202" type="standard_car" route="S_N_2" depart="599" departLane="random" departSpeed="10" />
    <vehicle id="S_E_203" type="standard_car" route="S_E" depart="600" departLane="random" departSpeed="10" />
    <vehicle id="N_S_2_204" type="standard_car" route="N_S_2" depart="601" departLane="random" departSpeed="10" />
    <vehicle id="E_W_205" type="standard_car" route="E_W" depart="603" departLane="random" departSpeed="10" />
    <vehicle id="emergency_12" type="emergency" route="S_E" depart="604" departLane="random" departSpeed="10" />
    <vehicle id="W_E_206" type="standard_car" route="W_E" depart="605" departLane="random" departSpeed="10" />
    <vehicle id="W_S_207" type="standard_car" route="W_S" depart="606" departLane="random" departSpeed="10" />
    <vehicle id="N_W_208" type="standard_car" route="N_W" depart="607" departLane="random" departSpeed="10" />
    <vehicle id="W_E_209" type="standard_car" route="W_E" depart="607" departLane="random" departSpeed="10" />
    <vehicle id="S_N_1_210" type="standard_car" route="S_N_1" depart="608" departLane="random" departSpeed="10" />
    <vehicle id="W_S_211" type="standard_car" route="W_S" depart="609" departLane="random" departSpeed="10" />
    <vehicle id="E_W_212" type="standard_car" route="E_W" depart="609" departLane="random" departSpeed="10" />
    <vehicle id="E_W_213" type="standard_car" route="E_W" depart="610" departLane="random" departSpeed="10" />
    <vehicle id="S_N_1_214" type="standard_car" route="S_N_1" depart="610" departLane="random" departSpeed="10" />
    <vehicle id="N_W_215" type="standard_car" route="N_W" depart="611" departLane="random" departSpeed="10" />
    <vehicle id="S_E_216" type="standard_car" route="S_E" depart="615" departLane="random" departSpeed="10" />
    <vehicle id="W_E_217" type="standard_car" route="W_E" depart="615" departLane="random" departSpeed="10" />
    <vehicle id="S_E_218" type="standard_car" route="S_E" depart="615" departLane="random" departSpeed="10" />
    <vehicle id="S_N_2_219" type="standard_car" route="S_N_2" depart="616" departLane="random" departSpeed="10" />
    <vehicle id="N_S_2_220" type="standard_car" route="N_S_2" depart="617" departLane="random" departSpeed="10" />
    <vehicle id="E_N_221" type="standard_car" route="E_N" depart="620" departLane="random" departSpeed="10" />
    <vehicle id="E_W_222" type="standard_car" route="E_W" depart="621" departLane="random" departSpeed="10" />
    <vehicle id="W_E_223" type="standard_car" route="W_E" depart="622" departLane="random" departSpeed="10" />
    <vehicle id="S_N_1_224" type="standard_car" route="S_N_1" depart="624" departLane="random" departSpeed="10" />
    <vehicle id="E_N_225" type="standard_car" route="E_N" depart="626" departLane="random" departSpeed="10" />
    <vehicle id="S_E_226" type="standard_car" route="S_E" depart="629" departLane="random" departSpeed="10" />
    <vehicle id="N_W_227" type="standard_car" route="N_W" depart="630" departLane="random" departSpeed="10" />
    <vehicle id="W_E_228" type="standard_car" route="W_E" depart="631" departLane="random" departSpeed="10" />
    <vehicle id="W_E_229" type="standard_car" route="W_E" depart="636" departLane="random" departSpeed="10" />
    <vehicle id="E_W_230" type="standard_car" route="E_W" depart="638" departLane="random" departSpeed="10" />
    <vehicle id="E_N_231" type="standard_car" route="E_N" depart="640" departLane="random" departSpeed="10" />
    <vehicle id="E_W_232" type="standard_car" route="E_W" depart="640" departLane="random" departSpeed="10" />
    <vehicle id="S_N_1_233" type="standard_car" route="S_N_1" depart="640" departLane="random" departSpeed="10" />
    <vehicle id="E_N_234" type="standard_car" route="E_N" depart="641" departLane="random" departSpeed="10" />
    <vehicle id="W_E_235" type="standard_car" route="W_E" depart="641" departLane="random" departSpeed="10" />
    <vehicle id="E_W_236" type="standard_car" route="E_W" depart="642" departLane="random" departSpeed="10" />
    <vehicle id="S_N_1_237" type="standard_car" route="S_N_1" depart="646" departLane="random" departSpeed="10" />
    <vehicle id="N_S_1_238" type="standard_car" route="N_S_1" depart="646" departLane="random" departSpeed="10" />
    <vehicle id="S_N_1_239" type="standard_car" route="S_N_1" depart="648" departLane="random" departSpeed="10" />
    <vehicle id="S_N_2_240" type="standard_car" route="S_N_2" depart="650" departLane="random" departSpeed="10" />
    <vehicle id="S_N_2_241" type="standard_car" route="S_N_2" depart="650" departLane="random" departSpeed="10" />
    <vehicle id="W_E_242" type="standard_car" route="W_E" depart="651" departLane="random" departSpeed="10" />
    <vehicle id="S_N_1_243" type="standard_car" route="S_N_1" depart="651" departLane="random" departSpeed="10" />
    <vehicle id="N_S_1_244" type="standard_car" route="N_S_1" depart="651" departLane="random" departSpeed="10" />
    <vehicle id="N_S_2_245" type="standard_car" route="N_S_2" depart="652" departLane="random" departSpeed="10" />