<?xml version="1.0" encoding="UTF-8"?>

<!-- generated on 2025-04-16 00:35:46 by Eclipse SUMO netedit Version 1.22.0
<neteditConfiguration xmlns:xsi="http://www.w3.org/2001/XMLSchema-instance" xsi:noNamespaceSchemaLocation="http://sumo.dlr.de/xsd/neteditConfiguration.xsd">

    <input>
        <sumo-net-file value="C:\Users\Cyborg 15\Desktop\diaCW\TLCS\intersection\1x2_grid\xx.net.xml"/>
    </input>

    <output>
        <output-file value="C:\Users\Cyborg 15\Desktop\diaCW\TLCS\intersection\1x2_grid\xx.net.xml"/>
    </output>

    <processing>
        <geometry.min-radius.fix.railways value="false"/>
        <geometry.max-grade.fix value="false"/>
        <offset.disable-normalization value="true"/>
        <lefthand value="0"/>
    </processing>

    <junctions>
        <no-turnarounds value="true"/>
        <junctions.corner-detail value="5"/>
        <junctions.limit-turn-speed value="5.50"/>
        <rectangular-lane-cut value="0"/>
    </junctions>

    <pedestrian>
        <walkingareas value="0"/>
    </pedestrian>

</neteditConfiguration>
-->

<net version="1.20" junctionCornerDetail="5" limitTurnSpeed="5.50" xmlns:xsi="http://www.w3.org/2001/XMLSchema-instance" xsi:noNamespaceSchemaLocation="http://sumo.dlr.de/xsd/net_file.xsd">

    <location netOffset="0.00,0.00" convBoundary="0.00,0.00,300.00,200.00" origBoundary="0.00,0.00,300.00,200.00" projParameter="!"/>

    <edge id=":n12_0" function="internal">
        <lane id=":n12_0_0" index="0" speed="3.65" length="4.67" shape="101.60,200.00 100.80,201.20 100.00,201.60 99.20,201.20 98.40,200.00"/>
    </edge>
    <edge id=":n13_0" function="internal">
        <lane id=":n13_0_0" index="0" speed="3.65" length="4.67" shape="201.60,200.00 200.80,201.20 200.00,201.60 199.20,201.20 198.40,200.00"/>
    </edge>
    <edge id=":n21_0" function="internal">
        <lane id=":n21_0_0" index="0" speed="3.65" length="4.67" shape="0.00,101.60 -1.20,100.80 -1.60,100.00 -1.20,99.20 0.00,98.40"/>
    </edge>
    <edge id=":n22_0" function="internal">
        <lane id=":n22_0_0" index="0" speed="6.51" length="9.03" shape="95.20,110.40 94.85,107.95 93.80,106.20 92.05,105.15 89.60,104.80"/>
    </edge>
    <edge id=":n22_1" function="internal">
        <lane id=":n22_1_0" index="0" speed="13.89" length="20.80" shape="95.20,110.40 95.20,89.60"/>
        <lane id=":n22_1_1" index="1" speed="13.89" length="20.80" shape="98.40,110.40 98.40,89.60"/>
    </edge>
    <edge id=":n22_3" function="internal">
        <lane id=":n22_3_0" index="0" speed="6.51" length="9.03" shape="110.40,104.80 107.95,105.15 106.20,106.20 105.15,107.95 104.80,110.40"/>
    </edge>
    <edge id=":n22_4" function="internal">
        <lane id=":n22_4_0" index="0" speed="13.89" length="20.80" shape="110.40,104.80 89.60,104.80"/>
        <lane id=":n22_4_1" index="1" speed="13.89" length="20.80" shape="110.40,101.60 89.60,101.60"/>
    </edge>
    <edge id=":n22_6" function="internal">
        <lane id=":n22_6_0" index="0" speed="6.51" length="9.03" shape="104.80,89.60 105.15,92.05 106.20,93.80 107.95,94.85 110.40,95.20"/>
    </edge>
    <edge id=":n22_7" function="internal">
        <lane id=":n22_7_0" index="0" speed="13.89" length="20.80" shape="104.80,89.60 104.80,110.40"/>
        <lane id=":n22_7_1" index="1" speed="13.89" length="20.80" shape="101.60,89.60 101.60,110.40"/>
    </edge>
    <edge id=":n22_9" function="internal">
        <lane id=":n22_9_0" index="0" speed="6.51" length="9.03" shape="89.60,95.20 92.05,94.85 93.80,93.80 94.85,92.05 95.20,89.60"/>
    </edge>
    <edge id=":n22_10" function="internal">
        <lane id=":n22_10_0" index="0" speed="13.89" length="20.80" shape="89.60,95.20 110.40,95.20"/>
        <lane id=":n22_10_1" index="1" speed="13.89" length="20.80" shape="89.60,98.40 110.40,98.40"/>
    </edge>
    <edge id=":n23_0" function="internal">
        <lane id=":n23_0_0" index="0" speed="6.51" length="9.03" shape="195.20,110.40 194.85,107.95 193.80,106.20 192.05,105.15 189.60,104.80"/>
    </edge>
    <edge id=":n23_1" function="internal">
        <lane id=":n23_1_0" index="0" speed="13.89" length="20.80" shape="195.20,110.40 195.20,89.60"/>
        <lane id=":n23_1_1" index="1" speed="13.89" length="20.80" shape="198.40,110.40 198.40,89.60"/>
    </edge>
    <edge id=":n23_3" function="internal">
        <lane id=":n23_3_0" index="0" speed="6.51" length="9.03" shape="210.40,104.80 207.95,105.15 206.20,106.20 205.15,107.95 204.80,110.40"/>
    </edge>
    <edge id=":n23_4" function="internal">
        <lane id=":n23_4_0" index="0" speed="13.89" length="20.80" shape="210.40,104.80 189.60,104.80"/>
        <lane id=":n23_4_1" index="1" speed="13.89" length="20.80" shape="210.40,101.60 189.60,101.60"/>
    </edge>
    <edge id=":n23_6" function="internal">
        <lane id=":n23_6_0" index="0" speed="6.51" length="9.03" shape="204.80,89.60 205.15,92.05 206.20,93.80 207.95,94.85 210.40,95.20"/>
    </edge>
    <edge id=":n23_7" function="internal">
        <lane id=":n23_7_0" index="0" speed="13.89" length="20.80" shape="204.80,89.60 204.80,110.40"/>
        <lane id=":n23_7_1" index="1" speed="13.89" length="20.80" shape="201.60,89.60 201.60,110.40"/>
    </edge>
    <edge id=":n23_9" function="internal">
        <lane id=":n23_9_0" index="0" speed="6.51" length="9.03" shape="189.60,95.20 192.05,94.85 193.80,93.80 194.85,92.05 195.20,89.60"/>
    </edge>
    <edge id=":n23_10" function="internal">
        <lane id=":n23_10_0" index="0" speed="13.89" length="20.80" shape="189.60,95.20 210.40,95.20"/>
        <lane id=":n23_10_1" index="1" speed="13.89" length="20.80" shape="189.60,98.40 210.40,98.40"/>
    </edge>
    <edge id=":n24_0" function="internal">
        <lane id=":n24_0_0" index="0" speed="3.65" length="4.67" shape="300.00,98.40 301.20,99.20 301.60,100.00 301.20,100.80 300.00,101.60"/>
    </edge>
    <edge id=":n32_0" function="internal">
        <lane id=":n32_0_0" index="0" speed="3.65" length="4.67" shape="98.40,0.00 99.20,-1.20 100.00,-1.60 100.80,-1.20 101.60,0.00"/>
    </edge>
    <edge id=":n33_0" function="internal">
        <lane id=":n33_0_0" index="0" speed="3.65" length="4.67" shape="198.40,0.00 199.20,-1.20 200.00,-1.60 200.80,-1.20 201.60,0.00"/>
    </edge>

    <edge id="h2L" from="n21" to="n22" priority="-1">
        <lane id="h2L_0" index="0" speed="13.89" length="89.60" shape="0.00,95.20 89.60,95.20"/>
        <lane id="h2L_1" index="1" speed="13.89" length="89.60" shape="0.00,98.40 89.60,98.40"/>
    </edge>
    <edge id="h2L_rev" from="n22" to="n21" priority="-1">
        <lane id="h2L_rev_0" index="0" speed="13.89" length="89.60" shape="89.60,104.80 0.00,104.80"/>
        <lane id="h2L_rev_1" index="1" speed="13.89" length="89.60" shape="89.60,101.60 0.00,101.60"/>
    </edge>
    <edge id="h2M" from="n22" to="n23" priority="-1">
        <lane id="h2M_0" index="0" speed="13.89" length="79.20" shape="110.40,95.20 189.60,95.20"/>
        <lane id="h2M_1" index="1" speed="13.89" length="79.20" shape="110.40,98.40 189.60,98.40"/>
    </edge>
    <edge id="h2M_rev" from="n23" to="n22" priority="-1">
        <lane id="h2M_rev_0" index="0" speed="13.89" length="79.20" shape="189.60,104.80 110.40,104.80"/>
        <lane id="h2M_rev_1" index="1" speed="13.89" length="79.20" shape="189.60,101.60 110.40,101.60"/>
    </edge>
    <edge id="h2R" from="n23" to="n24" priority="-1">
        <lane id="h2R_0" index="0" speed="13.89" length="89.60" shape="210.40,95.20 300.00,95.20"/>
        <lane id="h2R_1" index="1" speed="13.89" length="89.60" shape="210.40,98.40 300.00,98.40"/>
    </edge>
    <edge id="h2R_rev" from="n24" to="n23" priority="-1">
        <lane id="h2R_rev_0" index="0" speed="13.89" length="89.60" shape="300.00,104.80 210.40,104.80"/>
        <lane id="h2R_rev_1" index="1" speed="13.89" length="89.60" shape="300.00,101.60 210.40,101.60"/>
    </edge>
    <edge id="v2M" from="n22" to="n32" priority="-1">
        <lane id="v2M_0" index="0" speed="13.89" length="89.60" shape="95.20,89.60 95.20,0.00"/>
        <lane id="v2M_1" index="1" speed="13.89" length="89.60" shape="98.40,89.60 98.40,0.00"/>
    </edge>
    <edge id="v2M_rev" from="n32" to="n22" priority="-1">
        <lane id="v2M_rev_0" index="0" speed="13.89" length="89.60" shape="104.80,0.00 104.80,89.60"/>
        <lane id="v2M_rev_1" index="1" speed="13.89" length="89.60" shape="101.60,0.00 101.60,89.60"/>
    </edge>
    <edge id="v2T" from="n12" to="n22" priority="-1">
        <lane id="v2T_0" index="0" speed="13.89" length="89.60" shape="95.20,200.00 95.20,110.40"/>
        <lane id="v2T_1" index="1" speed="13.89" length="89.60" shape="98.40,200.00 98.40,110.40"/>
    </edge>
    <edge id="v2T_rev" from="n22" to="n12" priority="-1">
        <lane id="v2T_rev_0" index="0" speed="13.89" length="89.60" shape="104.80,110.40 104.80,200.00"/>
        <lane id="v2T_rev_1" index="1" speed="13.89" length="89.60" shape="101.60,110.40 101.60,200.00"/>
    </edge>
    <edge id="v3M" from="n23" to="n33" priority="-1">
        <lane id="v3M_0" index="0" speed="13.89" length="89.60" shape="195.20,89.60 195.20,0.00"/>
        <lane id="v3M_1" index="1" speed="13.89" length="89.60" shape="198.40,89.60 198.40,0.00"/>
    </edge>
    <edge id="v3M_rev" from="n33" to="n23" priority="-1">
        <lane id="v3M_rev_0" index="0" speed="13.89" length="89.60" shape="204.80,0.00 204.80,89.60"/>
        <lane id="v3M_rev_1" index="1" speed="13.89" length="89.60" shape="201.60,0.00 201.60,89.60"/>
    </edge>
    <edge id="v3T" from="n13" to="n23" priority="-1">
        <lane id="v3T_0" index="0" speed="13.89" length="89.60" shape="195.20,200.00 195.20,110.40"/>
        <lane id="v3T_1" index="1" speed="13.89" length="89.60" shape="198.40,200.00 198.40,110.40"/>
    </edge>
    <edge id="v3T_rev" from="n23" to="n13" priority="-1">
        <lane id="v3T_rev_0" index="0" speed="13.89" length="89.60" shape="204.80,110.40 204.80,200.00"/>
        <lane id="v3T_rev_1" index="1" speed="13.89" length="89.60" shape="201.60,110.40 201.60,200.00"/>
    </edge>

    <tlLogic id="n22" type="static" programID="0" offset="0">
        <phase duration="42" state="GGGrrrGGGrrr"/>
        <phase duration="3"  state="yyyrrryyyrrr"/>
        <phase duration="42" state="rrrGGGrrrGGG"/>
        <phase duration="3"  state="rrryyyrrryyy"/>
    </tlLogic>
    <tlLogic id="n23" type="static" programID="0" offset="0">
        <phase duration="42" state="GGGrrrGGGrrr"/>
        <phase duration="3"  state="yyyrrryyyrrr"/>
        <phase duration="42" state="rrrGGGrrrGGG"/>
        <phase duration="3"  state="rrryyyrrryyy"/>
    </tlLogic>

    <junction id="n12" type="priority" x="100.00" y="200.00" incLanes="v2T_rev_0 v2T_rev_1" intLanes=":n12_0_0" shape="100.00,200.00 106.40,200.00 100.00,200.00">
        <request index="0" response="0" foes="0" cont="0"/>
    </junction>
    <junction id="n13" type="priority" x="200.00" y="200.00" incLanes="v3T_rev_0 v3T_rev_1" intLanes=":n13_0_0" shape="200.00,200.00 206.40,200.00 200.00,200.00">
        <request index="0" response="0" foes="0" cont="0"/>
    </junction>
    <junction id="n21" type="priority" x="0.00" y="100.00" incLanes="h2L_rev_0 h2L_rev_1" intLanes=":n21_0_0" shape="0.00,100.00 0.00,106.40 0.00,100.00">
        <request index="0" response="0" foes="0" cont="0"/>
    </junction>
    <junction id="n22" type="traffic_light" x="100.00" y="100.00" incLanes="v2T_0 v2T_1 h2M_rev_0 h2M_rev_1 v2M_rev_0 v2M_rev_1 h2L_0 h2L_1" intLanes=":n22_0_0 :n22_1_0 :n22_1_1 :n22_3_0 :n22_4_0 :n22_4_1 :n22_6_0 :n22_7_0 :n22_7_1 :n22_9_0 :n22_10_0 :n22_10_1" shape="93.60,110.40 106.40,110.40 106.84,108.18 107.40,107.40 108.18,106.84 109.18,106.51 110.40,106.40 110.40,93.60 108.18,93.16 107.40,92.60 106.84,91.82 106.51,90.82 106.40,89.60 93.60,89.60 93.16,91.82 92.60,92.60 91.82,93.16 90.82,93.49 89.60,93.60 89.60,106.40 91.82,106.84 92.60,107.40 93.16,108.18 93.49,109.18">
        <request index="0"  response="000000000000" foes="000000110000" cont="0"/>
        <request index="1"  response="000000000000" foes="111000110000" cont="0"/>
        <request index="2"  response="000000000000" foes="111000110000" cont="0"/>
        <request index="3"  response="000110000000" foes="000110000000" cont="0"/>
        <request index="4"  response="000110000111" foes="000110000111" cont="0"/>
        <request index="5"  response="000110000111" foes="000110000111" cont="0"/>
        <request index="6"  response="000000000000" foes="110000000000" cont="0"/>
        <request index="7"  response="000000000000" foes="110000111000" cont="0"/>
        <request index="8"  response="000000000000" foes="110000111000" cont="0"/>
        <request index="9"  response="000000000110" foes="000000000110" cont="0"/>
        <request index="10" response="000111000110" foes="000111000110" cont="0"/>
        <request index="11" response="000111000110" foes="000111000110" cont="0"/>
    </junction>
    <junction id="n23" type="traffic_light" x="200.00" y="100.00" incLanes="v3T_0 v3T_1 h2R_rev_0 h2R_rev_1 v3M_rev_0 v3M_rev_1 h2M_0 h2M_1" intLanes=":n23_0_0 :n23_1_0 :n23_1_1 :n23_3_0 :n23_4_0 :n23_4_1 :n23_6_0 :n23_7_0 :n23_7_1 :n23_9_0 :n23_10_0 :n23_10_1" shape="193.60,110.40 206.40,110.40 206.84,108.18 207.40,107.40 208.18,106.84 209.18,106.51 210.40,106.40 210.40,93.60 208.18,93.16 207.40,92.60 206.84,91.82 206.51,90.82 206.40,89.60 193.60,89.60 193.16,91.82 192.60,92.60 191.82,93.16 190.82,93.49 189.60,93.60 189.60,106.40 191.82,106.84 192.60,107.40 193.16,108.18 193.49,109.18">
        <request index="0"  response="000000000000" foes="000000110000" cont="0"/>
        <request index="1"  response="000000000000" foes="111000110000" cont="0"/>
        <request index="2"  response="000000000000" foes="111000110000" cont="0"/>
        <request index="3"  response="000110000000" foes="000110000000" cont="0"/>
        <request index="4"  response="000110000111" foes="000110000111" cont="0"/>
        <request index="5"  response="000110000111" foes="000110000111" cont="0"/>
        <request index="6"  response="000000000000" foes="110000000000" cont="0"/>
        <request index="7"  response="000000000000" foes="110000111000" cont="0"/>
        <request index="8"  response="000000000000" foes="110000111000" cont="0"/>
        <request index="9"  response="000000000110" foes="000000000110" cont="0"/>
        <request index="10" response="000111000110" foes="000111000110" cont="0"/>
        <request index="11" response="000111000110" foes="000111000110" cont="0"/>
    </junction>
    <junction id="n24" type="priority" x="300.00" y="100.00" incLanes="h2R_0 h2R_1" intLanes=":n24_0_0" shape="300.00,100.00 300.00,93.60 300.00,100.00">
        <request index="0" response="0" foes="0" cont="0"/>
    </junction>
    <junction id="n32" type="priority" x="100.00" y="0.00" incLanes="v2M_0 v2M_1" intLanes=":n32_0_0" shape="100.00,0.00 93.60,0.00 100.00,0.00">
        <request index="0" response="0" foes="0" cont="0"/>
    </junction>
    <junction id="n33" type="priority" x="200.00" y="0.00" incLanes="v3M_0 v3M_1" intLanes=":n33_0_0" shape="200.00,0.00 193.60,0.00 200.00,0.00">
        <request index="0" response="0" foes="0" cont="0"/>
    </junction>

    <connection from="h2L" to="v2M" fromLane="0" toLane="0" via=":n22_9_0" tl="n22" linkIndex="9" dir="r" state="o"/>
    <connection from="h2L" to="h2M" fromLane="0" toLane="0" via=":n22_10_0" tl="n22" linkIndex="10" dir="s" state="o"/>
    <connection from="h2L" to="h2M" fromLane="1" toLane="1" via=":n22_10_1" tl="n22" linkIndex="11" dir="s" state="o"/>
    <connection from="h2L_rev" to="h2L" fromLane="1" toLane="1" via=":n21_0_0" dir="t" state="M"/>
    <connection from="h2M" to="v3M" fromLane="0" toLane="0" via=":n23_9_0" tl="n23" linkIndex="9" dir="r" state="o"/>
    <connection from="h2M" to="h2R" fromLane="0" toLane="0" via=":n23_10_0" tl="n23" linkIndex="10" dir="s" state="o"/>
    <connection from="h2M" to="h2R" fromLane="1" toLane="1" via=":n23_10_1" tl="n23" linkIndex="11" dir="s" state="o"/>
    <connection from="h2M_rev" to="v2T_rev" fromLane="0" toLane="0" via=":n22_3_0" tl="n22" linkIndex="3" dir="r" state="o"/>
    <connection from="h2M_rev" to="h2L_rev" fromLane="0" toLane="0" via=":n22_4_0" tl="n22" linkIndex="4" dir="s" state="o"/>
    <connection from="h2M_rev" to="h2L_rev" fromLane="1" toLane="1" via=":n22_4_1" tl="n22" linkIndex="5" dir="s" state="o"/>
    <connection from="h2R" to="h2R_rev" fromLane="1" toLane="1" via=":n24_0_0" dir="t" state="M"/>
    <connection from="h2R_rev" to="v3T_rev" fromLane="0" toLane="0" via=":n23_3_0" tl="n23" linkIndex="3" dir="r" state="o"/>
    <connection from="h2R_rev" to="h2M_rev" fromLane="0" toLane="0" via=":n23_4_0" tl="n23" linkIndex="4" dir="s" state="o"/>
    <connection from="h2R_rev" to="h2M_rev" fromLane="1" toLane="1" via=":n23_4_1" tl="n23" linkIndex="5" dir="s" state="o"/>
    <connection from="v2M" to="v2M_rev" fromLane="1" toLane="1" via=":n32_0_0" dir="t" state="M"/>
    <connection from="v2M_rev" to="h2M" fromLane="0" toLane="0" via=":n22_6_0" tl="n22" linkIndex="6" dir="r" state="O"/>
    <connection from="v2M_rev" to="v2T_rev" fromLane="0" toLane="0" via=":n22_7_0" tl="n22" linkIndex="7" dir="s" state="O"/>
    <connection from="v2M_rev" to="v2T_rev" fromLane="1" toLane="1" via=":n22_7_1" tl="n22" linkIndex="8" dir="s" state="O"/>
    <connection from="v2T" to="h2L_rev" fromLane="0" toLane="0" via=":n22_0_0" tl="n22" linkIndex="0" dir="r" state="O"/>
    <connection from="v2T" to="v2M" fromLane="0" toLane="0" via=":n22_1_0" tl="n22" linkIndex="1" dir="s" state="O"/>
    <connection from="v2T" to="v2M" fromLane="1" toLane="1" via=":n22_1_1" tl="n22" linkIndex="2" dir="s" state="O"/>
    <connection from="v2T_rev" to="v2T" fromLane="1" toLane="1" via=":n12_0_0" dir="t" state="M"/>
    <connection from="v3M" to="v3M_rev" fromLane="1" toLane="1" via=":n33_0_0" dir="t" state="M"/>
    <connection from="v3M_rev" to="h2R" fromLane="0" toLane="0" via=":n23_6_0" tl="n23" linkIndex="6" dir="r" state="O"/>
    <connection from="v3M_rev" to="v3T_rev" fromLane="0" toLane="0" via=":n23_7_0" tl="n23" linkIndex="7" dir="s" state="O"/>
    <connection from="v3M_rev" to="v3T_rev" fromLane="1" toLane="1" via=":n23_7_1" tl="n23" linkIndex="8" dir="s" state="O"/>
    <connection from="v3T" to="h2M_rev" fromLane="0" toLane="0" via=":n23_0_0" tl="n23" linkIndex="0" dir="r" state="O"/>
    <connection from="v3T" to="v3M" fromLane="0" toLane="0" via=":n23_1_0" tl="n23" linkIndex="1" dir="s" state="O"/>
    <connection from="v3T" to="v3M" fromLane="1" toLane="1" via=":n23_1_1" tl="n23" linkIndex="2" dir="s" state="O"/>
    <connection from="v3T_rev" to="v3T" fromLane="1" toLane="1" via=":n13_0_0" dir="t" state="M"/>

    <connection from=":n12_0" to="v2T" fromLane="0" toLane="1" dir="t" state="M"/>
    <connection from=":n13_0" to="v3T" fromLane="0" toLane="1" dir="t" state="M"/>
    <connection from=":n21_0" to="h2L" fromLane="0" toLane="1" dir="t" state="M"/>
    <connection from=":n22_0" to="h2L_rev" fromLane="0" toLane="0" dir="r" state="M"/>
    <connection from=":n22_1" to="v2M" fromLane="0" toLane="0" dir="s" state="M"/>
    <connection from=":n22_1" to="v2M" fromLane="1" toLane="1" dir="s" state="M"/>
    <connection from=":n22_3" to="v2T_rev" fromLane="0" toLane="0" dir="r" state="M"/>
    <connection from=":n22_4" to="h2L_rev" fromLane="0" toLane="0" dir="s" state="M"/>
    <connection from=":n22_4" to="h2L_rev" fromLane="1" toLane="1" dir="s" state="M"/>
    <connection from=":n22_6" to="h2M" fromLane="0" toLane="0" dir="r" state="M"/>
    <connection from=":n22_7" to="v2T_rev" fromLane="0" toLane="0" dir="s" state="M"/>
    <connection from=":n22_7" to="v2T_rev" fromLane="1" toLane="1" dir="s" state="M"/>
    <connection from=":n22_9" to="v2M" fromLane="0" toLane="0" dir="r" state="M"/>
    <connection from=":n22_10" to="h2M" fromLane="0" toLane="0" dir="s" state="M"/>
    <connection from=":n22_10" to="h2M" fromLane="1" toLane="1" dir="s" state="M"/>
    <connection from=":n23_0" to="h2M_rev" fromLane="0" toLane="0" dir="r" state="M"/>
    <connection from=":n23_1" to="v3M" fromLane="0" toLane="0" dir="s" state="M"/>
    <connection from=":n23_1" to="v3M" fromLane="1" toLane="1" dir="s" state="M"/>
    <connection from=":n23_3" to="v3T_rev" fromLane="0" toLane="0" dir="r" state="M"/>
    <connection from=":n23_4" to="h2M_rev" fromLane="0" toLane="0" dir="s" state="M"/>
    <connection from=":n23_4" to="h2M_rev" fromLane="1" toLane="1" dir="s" state="M"/>
    <connection from=":n23_6" to="h2R" fromLane="0" toLane="0" dir="r" state="M"/>
    <connection from=":n23_7" to="v3T_rev" fromLane="0" toLane="0" dir="s" state="M"/>
    <connection from=":n23_7" to="v3T_rev" fromLane="1" toLane="1" dir="s" state="M"/>
    <connection from=":n23_9" to="v3M" fromLane="0" toLane="0" dir="r" state="M"/>
    <connection from=":n23_10" to="h2R" fromLane="0" toLane="0" dir="s" state="M"/>
    <connection from=":n23_10" to="h2R" fromLane="1" toLane="1" dir="s" state="M"/>
    <connection from=":n24_0" to="h2R_rev" fromLane="0" toLane="1" dir="t" state="M"/>
    <connection from=":n32_0" to="v2M_rev" fromLane="0" toLane="1" dir="t" state="M"/>
    <connection from=":n33_0" to="v3M_rev" fromLane="0" toLane="1" dir="t" state="M"/>

</net>
