<routes>
    <!-- Define emergency vehicle type -->
    <vType id="emergency" accel="3.0" decel="6.0" color="1,0,0"
           maxSpeed="20" sigma="0.5" emergency="true" />
    <!-- Define standard vehicle type -->
    <vType id="standard_car" accel="1.0" decel="4.5" length="5.0"
           minGap="2.5" maxSpeed="25" sigma="0.5" />

    <route id="W_N" edges="W2TL TL2N"/>
    <route id="W_E" edges="W2TL TL2E"/>
    <route id="W_S" edges="W2TL TL2S"/>
    <route id="N_W" edges="N2TL TL2W"/>
    <route id="N_E" edges="N2TL TL2E"/>
    <route id="N_S" edges="N2TL TL2S"/>
    <route id="E_W" edges="E2TL TL2W"/>
    <route id="E_N" edges="E2TL TL2N"/>
    <route id="E_S" edges="E2TL TL2S"/>
    <route id="S_W" edges="S2TL TL2W"/>
    <route id="S_N" edges="S2TL TL2N"/>
    <route id="S_E" edges="S2TL TL2E"/>
    <vehicle id="E_W_0" type="standard_car" route="E_W" depart="24" departLane="random" departSpeed="10" />
    <vehicle id="S_W_1" type="standard_car" route="S_W" depart="29" departLane="random" departSpeed="10" />
    <vehicle id="E_W_2" type="standard_car" route="E_W" depart="36" departLane="random" departSpeed="10" />
    <vehicle id="S_E_3" type="standard_car" route="S_E" depart="69" departLane="random" departSpeed="10" />
    <vehicle id="S_N_4" type="standard_car" route="S_N" depart="97" departLane="random" departSpeed="10" />
    <vehicle id="N_E_5" type="standard_car" route="N_E" depart="104" departLane="random" departSpeed="10" />
    <vehicle id="S_N_6" type="standard_car" route="S_N" depart="117" departLane="random" departSpeed="10" />
    <vehicle id="W_E_7" type="standard_car" route="W_E" depart="119" departLane="random" departSpeed="10" />
    <vehicle id="W_N_8" type="standard_car" route="W_N" depart="124" departLane="random" departSpeed="10" />
    <vehicle id="W_E_9" type="standard_car" route="W_E" depart="130" departLane="random" departSpeed="10" />
    <vehicle id="N_S_10" type="standard_car" route="N_S" depart="130" departLane="random" departSpeed="10" />
    <vehicle id="S_N_11" type="standard_car" route="S_N" depart="133" departLane="random" departSpeed="10" />
    <vehicle id="S_N_12" type="standard_car" route="S_N" depart="140" departLane="random" departSpeed="10" />
    <vehicle id="S_N_13" type="standard_car" route="S_N" depart="147" departLane="random" departSpeed="10" />
    <vehicle id="E_W_14" type="standard_car" route="E_W" depart="150" departLane="random" departSpeed="10" />
    <vehicle id="E_S_15" type="standard_car" route="E_S" depart="152" departLane="random" departSpeed="10" />
    <vehicle id="E_W_16" type="standard_car" route="E_W" depart="156" departLane="random" departSpeed="10" />
    <vehicle id="S_N_17" type="standard_car" route="S_N" depart="160" departLane="random" departSpeed="10" />
    <vehicle id="N_S_18" type="standard_car" route="N_S" depart="168" departLane="random" departSpeed="10" />
    <vehicle id="W_E_19" type="standard_car" route="W_E" depart="168" departLane="random" departSpeed="10" />
    <vehicle id="W_E_20" type="standard_car" route="W_E" depart="186" departLane="random" departSpeed="10" />
    <vehicle id="S_N_21" type="standard_car" route="S_N" depart="200" departLane="random" departSpeed="10" />
    <vehicle id="W_E_22" type="standard_car" route="W_E" depart="206" departLane="random" departSpeed="10" />
    <vehicle id="N_W_23" type="standard_car" route="N_W" depart="211" departLane="random" departSpeed="10" />
    <vehicle id="W_S_24" type="standard_car" route="W_S" depart="214" departLane="random" departSpeed="10" />
    <vehicle id="W_E_25" type="standard_car" route="W_E" depart="218" departLane="random" departSpeed="10" />
    <vehicle id="S_N_26" type="standard_car" route="S_N" depart="224" departLane="random" departSpeed="10" />
    <vehicle id="W_E_27" type="standard_car" route="W_E" depart="224" departLane="random" departSpeed="10" />
    <vehicle id="W_E_28" type="standard_car" route="W_E" depart="225" departLane="random" departSpeed="10" />
    <vehicle id="W_E_29" type="standard_car" route="W_E" depart="244" departLane="random" departSpeed="10" />
    <vehicle id="W_E_30" type="standard_car" route="W_E" depart="250" departLane="random" departSpeed="10" />
    <vehicle id="E_W_31" type="standard_car" route="E_W" depart="259" departLane="random" departSpeed="10" />
    <vehicle id="N_W_32" type="standard_car" route="N_W" depart="263" departLane="random" departSpeed="10" />
    <vehicle id="W_E_33" type="standard_car" route="W_E" depart="265" departLane="random" departSpeed="10" />
    <vehicle id="N_S_34" type="standard_car" route="N_S" depart="265" departLane="random" departSpeed="10" />
    <vehicle id="S_N_35" type="standard_car" route="S_N" depart="265" departLane="random" departSpeed="10" />
    <vehicle id="E_S_36" type="standard_car" route="E_S" depart="266" departLane="random" departSpeed="10" />
    <vehicle id="E_W_37" type="standard_car" route="E_W" depart="268" departLane="random" departSpeed="10" />
    <vehicle id="E_W_38" type="standard_car" route="E_W" depart="269" departLane="random" departSpeed="10" />
    <vehicle id="N_E_39" type="standard_car" route="N_E" depart="271" departLane="random" departSpeed="10" />
    <vehicle id="N_W_40" type="standard_car" route="N_W" depart="275" departLane="random" departSpeed="10" />
    <vehicle id="S_W_41" type="standard_car" route="S_W" depart="276" departLane="random" departSpeed="10" />
    <vehicle id="E_W_42" type="standard_car" route="E_W" depart="281" departLane="random" departSpeed="10" />
    <vehicle id="E_W_43" type="standard_car" route="E_W" depart="284" departLane="random" departSpeed="10" />
    <vehicle id="E_W_44" type="standard_car" route="E_W" depart="284" departLane="random" departSpeed="10" />
    <vehicle id="W_E_45" type="standard_car" route="W_E" depart="290" departLane="random" departSpeed="10" />
    <vehicle id="E_N_46" type="standard_car" route="E_N" depart="290" departLane="random" departSpeed="10" />
    <vehicle id="E_W_47" type="standard_car" route="E_W" depart="293" departLane="random" departSpeed="10" />
    <vehicle id="S_N_48" type="standard_car" route="S_N" depart="297" departLane="random" departSpeed="10" />
    <vehicle id="E_S_49" type="standard_car" route="E_S" depart="298" departLane="random" departSpeed="10" />
    <vehicle id="E_N_50" type="standard_car" route="E_N" depart="300" departLane="random" departSpeed="10" />
    <vehicle id="W_S_51" type="standard_car" route="W_S" depart="302" departLane="random" departSpeed="10" />
    <vehicle id="E_W_52" type="standard_car" route="E_W" depart="302" departLane="random" departSpeed="10" />
    <vehicle id="W_E_53" type="standard_car" route="W_E" depart="303" departLane="random" departSpeed="10" />
    <vehicle id="S_N_54" type="standard_car" route="S_N" depart="303" departLane="random" departSpeed="10" />
    <vehicle id="W_E_55" type="standard_car" route="W_E" depart="305" departLane="random" departSpeed="10" />
    <vehicle id="S_N_56" type="standard_car" route="S_N" depart="314" departLane="random" departSpeed="10" />
    <vehicle id="W_E_57" type="standard_car" route="W_E" depart="315" departLane="random" departSpeed="10" />
    <vehicle id="N_E_58" type="standard_car" route="N_E" depart="316" departLane="random" departSpeed="10" />
    <vehicle id="W_E_59" type="standard_car" route="W_E" depart="321" departLane="random" departSpeed="10" />
    <vehicle id="E_W_60" type="standard_car" route="E_W" depart="324" departLane="random" departSpeed="10" />
    <vehicle id="N_S_61" type="standard_car" route="N_S" depart="325" departLane="random" departSpeed="10" />
    <vehicle id="W_E_62" type="standard_car" route="W_E" depart="327" departLane="random" departSpeed="10" />
    <vehicle id="N_S_63" type="standard_car" route="N_S" depart="328" departLane="random" departSpeed="10" />
    <vehicle id="E_W_64" type="standard_car" route="E_W" depart="328" departLane="random" departSpeed="10" />
    <vehicle id="W_E_65" type="standard_car" route="W_E" depart="332" departLane="random" departSpeed="10" />
    <vehicle id="N_S_66" type="standard_car" route="N_S" depart="333" departLane="random" departSpeed="10" />
    <vehicle id="W_E_67" type="standard_car" route="W_E" depart="334" departLane="random" departSpeed="10" />
    <vehicle id="N_S_68" type="standard_car" route="N_S" depart="341" departLane="random" departSpeed="10" />
    <vehicle id="E_S_69" type="standard_car" route="E_S" depart="342" departLane="random" departSpeed="10" />
    <vehicle id="S_N_70" type="standard_car" route="S_N" depart="345" departLane="random" departSpeed="10" />
    <vehicle id="N_W_71" type="standard_car" route="N_W" depart="345" departLane="random" departSpeed="10" />
    <vehicle id="W_E_72" type="standard_car" route="W_E" depart="345" departLane="random" departSpeed="10" />
    <vehicle id="E_W_73" type="standard_car" route="E_W" depart="347" departLane="random" departSpeed="10" />
    <vehicle id="emergency_0" type="emergency" route="S_W" depart="348" departLane="random" departSpeed="10" />
    <vehicle id="N_W_74" type="standard_car" route="N_W" depart="350" departLane="random" departSpeed="10" />
    <vehicle id="S_N_75" type="standard_car" route="S_N" depart="351" departLane="random" departSpeed="10" />
    <vehicle id="W_E_76" type="standard_car" route="W_E" depart="353" departLane="random" departSpeed="10" />
    <vehicle id="W_E_77" type="standard_car" route="W_E" depart="357" departLane="random" departSpeed="10" />
    <vehicle id="W_E_78" type="standard_car" route="W_E" depart="358" departLane="random" departSpeed="10" />
    <vehicle id="E_W_79" type="standard_car" route="E_W" depart="362" departLane="random" departSpeed="10" />
    <vehicle id="S_N_80" type="standard_car" route="S_N" depart="365" departLane="random" departSpeed="10" />
    <vehicle id="E_W_81" type="standard_car" route="E_W" depart="365" departLane="random" departSpeed="10" />
    <vehicle id="E_W_82" type="standard_car" route="E_W" depart="366" departLane="random" departSpeed="10" />
    <vehicle id="N_S_83" type="standard_car" route="N_S" depart="366" departLane="random" departSpeed="10" />
    <vehicle id="S_E_84" type="standard_car" route="S_E" depart="367" departLane="random" departSpeed="10" />
    <vehicle id="W_E_85" type="standard_car" route="W_E" depart="369" departLane="random" departSpeed="10" />
    <vehicle id="E_W_86" type="standard_car" route="E_W" depart="370" departLane="random" departSpeed="10" />
    <vehicle id="S_N_87" type="standard_car" route="S_N" depart="371" departLane="random" departSpeed="10" />
    <vehicle id="E_W_88" type="standard_car" route="E_W" depart="374" departLane="random" departSpeed="10" />
    <vehicle id="W_E_89" type="standard_car" route="W_E" depart="383" departLane="random" departSpeed="10" />
    <vehicle id="S_E_90" type="standard_car" route="S_E" depart="384" departLane="random" departSpeed="10" />
    <vehicle id="W_E_91" type="standard_car" route="W_E" depart="386" departLane="random" departSpeed="10" />
    <vehicle id="E_N_92" type="standard_car" route="E_N" depart="387" departLane="random" departSpeed="10" />
    <vehicle id="N_S_93" type="standard_car" route="N_S" depart="387" departLane="random" departSpeed="10" />
    <vehicle id="N_S_94" type="standard_car" route="N_S" depart="388" departLane="random" departSpeed="10" />
    <vehicle id="W_E_95" type="standard_car" route="W_E" depart="390" departLane="random" departSpeed="10" />
    <vehicle id="W_E_96" type="standard_car" route="W_E" depart="391" departLane="random" departSpeed="10" />
    <vehicle id="S_N_97" type="standard_car" route="S_N" depart="391" departLane="random" departSpeed="10" />
    <vehicle id="E_S_98" type="standard_car" route="E_S" depart="393" departLane="random" departSpeed="10" />
    <vehicle id="S_N_99" type="standard_car" route="S_N" depart="393" departLane="random" departSpeed="10" />
    <vehicle id="E_N_100" type="standard_car" route="E_N" depart="396" departLane="random" departSpeed="10" />
    <vehicle id="W_E_101" type="standard_car" route="W_E" depart="397" departLane="random" departSpeed="10" />
    <vehicle id="N_S_102" type="standard_car" route="N_S" depart="398" departLane="random" departSpeed="10" />
    <vehicle id="E_N_103" type="standard_car" route="E_N" depart="398" departLane="random" departSpeed="10" />
    <vehicle id="W_E_104" type="standard_car" route="W_E" depart="400" departLane="random" departSpeed="10" />
    <vehicle id="E_W_105" type="standard_car" route="E_W" depart="400" departLane="random" departSpeed="10" />
    <vehicle id="E_N_106" type="standard_car" route="E_N" depart="412" departLane="random" departSpeed="10" />
    <vehicle id="W_N_107" type="standard_car" route="W_N" depart="416" departLane="random" departSpeed="10" />
    <vehicle id="S_N_108" type="standard_car" route="S_N" depart="416" departLane="random" departSpeed="10" />
    <vehicle id="S_N_109" type="standard_car" route="S_N" depart="417" departLane="random" departSpeed="10" />
    <vehicle id="N_E_110" type="standard_car" route="N_E" depart="418" departLane="random" departSpeed="10" />
    <vehicle id="W_E_111" type="standard_car" route="W_E" depart="419" departLane="random" departSpeed="10" />
    <vehicle id="S_N_112" type="standard_car" route="S_N" depart="422" departLane="random" departSpeed="10" />
    <vehicle id="S_N_113" type="standard_car" route="S_N" depart="422" departLane="random" departSpeed="10" />
    <vehicle id="S_N_114" type="standard_car" route="S_N" depart="429" departLane="random" departSpeed="10" />
    <vehicle id="E_W_115" type="standard_car" route="E_W" depart="432" departLane="random" departSpeed="10" />
    <vehicle id="N_S_116" type="standard_car" route="N_S" depart="435" departLane="random" departSpeed="10" />
    <vehicle id="S_N_117" type="standard_car" route="S_N" depart="437" departLane="random" departSpeed="10" />
    <vehicle id="W_N_118" type="standard_car" route="W_N" depart="437" departLane="random" departSpeed="10" />
    <vehicle id="E_W_119" type="standard_car" route="E_W" depart="442" departLane="random" departSpeed="10" />
    <vehicle id="S_E_120" type="standard_car" route="S_E" depart="444" departLane="random" departSpeed="10" />
    <vehicle id="E_W_121" type="standard_car" route="E_W" depart="444" departLane="random" departSpeed="10" />
    <vehicle id="W_N_122" type="standard_car" route="W_N" depart="446" departLane="random" departSpeed="10" />
    <vehicle id="N_S_123" type="standard_car" route="N_S" depart="451" departLane="random" departSpeed="10" />
    <vehicle id="S_N_124" type="standard_car" route="S_N" depart="452" departLane="random" departSpeed="10" />
    <vehicle id="E_W_125" type="standard_car" route="E_W" depart="453" departLane="random" departSpeed="10" />
    <vehicle id="E_W_126" type="standard_car" route="E_W" depart="454" departLane="random" departSpeed="10" />
    <vehicle id="N_S_127" type="standard_car" route="N_S" depart="458" departLane="random" departSpeed="10" />
    <vehicle id="W_E_128" type="standard_car" route="W_E" depart="458" departLane="random" departSpeed="10" />
    <vehicle id="W_S_129" type="standard_car" route="W_S" depart="461" departLane="random" departSpeed="10" />
    <vehicle id="N_S_130" type="standard_car" route="N_S" depart="461" departLane="random" departSpeed="10" />
    <vehicle id="S_N_131" type="standard_car" route="S_N" depart="461" departLane="random" departSpeed="10" />
    <vehicle id="E_W_132" type="standard_car" route="E_W" depart="463" departLane="random" departSpeed="10" />
    <vehicle id="S_N_133" type="standard_car" route="S_N" depart="464" departLane="random" departSpeed="10" />
    <vehicle id="E_N_134" type="standard_car" route="E_N" depart="467" departLane="random" departSpeed="10" />
    <vehicle id="S_N_135" type="standard_car" route="S_N" depart="468" departLane="random" departSpeed="10" />
    <vehicle id="N_E_136" type="standard_car" route="N_E" depart="469" departLane="random" departSpeed="10" />
    <vehicle id="E_W_137" type="standard_car" route="E_W" depart="475" departLane="random" departSpeed="10" />
    <vehicle id="S_N_138" type="standard_car" route="S_N" depart="475" departLane="random" departSpeed="10" />
    <vehicle id="E_W_139" type="standard_car" route="E_W" depart="479" departLane="random" departSpeed="10" />
    <vehicle id="N_S_140" type="standard_car" route="N_S" depart="484" departLane="random" departSpeed="10" />
    <vehicle id="W_E_141" type="standard_car" route="W_E" depart="485" departLane="random" departSpeed="10" />
    <vehicle id="W_N_142" type="standard_car" route="W_N" depart="494" departLane="random" departSpeed="10" />
    <vehicle id="W_E_143" type="standard_car" route="W_E" depart="498" departLane="random" departSpeed="10" />
    <vehicle id="S_E_144" type="standard_car" route="S_E" depart="499" departLane="random" departSpeed="10" />
    <vehicle id="W_E_145" type="standard_car" route="W_E" depart="502" departLane="random" departSpeed="10" />
    <vehicle id="S_N_146" type="standard_car" route="S_N" depart="503" departLane="random" departSpeed="10" />
    <vehicle id="S_N_147" type="standard_car" route="S_N" depart="507" departLane="random" departSpeed="10" />
    <vehicle id="N_S_148" type="standard_car" route="N_S" depart="509" departLane="random" departSpeed="10" />
    <vehicle id="E_W_149" type="standard_car" route="E_W" depart="512" departLane="random" departSpeed="10" />
    <vehicle id="W_S_150" type="standard_car" route="W_S" depart="515" departLane="random" departSpeed="10" />
    <vehicle id="N_S_151" type="standard_car" route="N_S" depart="517" departLane="random" departSpeed="10" />
    <vehicle id="N_W_152" type="standard_car" route="N_W" depart="519" departLane="random" departSpeed="10" />
    <vehicle id="S_N_153" type="standard_car" route="S_N" depart="519" departLane="random" departSpeed="10" />
    <vehicle id="N_S_154" type="standard_car" route="N_S" depart="521" departLane="random" departSpeed="10" />
    <vehicle id="E_W_155" type="standard_car" route="E_W" depart="522" departLane="random" departSpeed="10" />
    <vehicle id="N_S_156" type="standard_car" route="N_S" depart="522" departLane="random" departSpeed="10" />
    <vehicle id="W_N_157" type="standard_car" route="W_N" depart="523" departLane="random" departSpeed="10" />
    <vehicle id="W_E_158" type="standard_car" route="W_E" depart="524" departLane="random" departSpeed="10" />
    <vehicle id="W_E_159" type="standard_car" route="W_E" depart="524" departLane="random" departSpeed="10" />
    <vehicle id="N_S_160" type="standard_car" route="N_S" depart="525" departLane="random" departSpeed="10" />
    <vehicle id="E_W_161" type="standard_car" route="E_W" depart="528" departLane="random" departSpeed="10" />
    <vehicle id="S_N_162" type="standard_car" route="S_N" depart="531" departLane="random" departSpeed="10" />
    <vehicle id="W_E_163" type="standard_car" route="W_E" depart="532" departLane="random" departSpeed="10" />
    <vehicle id="W_E_164" type="standard_car" route="W_E" depart="533" departLane="random" departSpeed="10" />
    <vehicle id="E_W_165" type="standard_car" route="E_W" depart="536" departLane="random" departSpeed="10" />
    <vehicle id="S_N_166" type="standard_car" route="S_N" depart="538" departLane="random" departSpeed="10" />
    <vehicle id="W_E_167" type="standard_car" route="W_E" depart="538" departLane="random" departSpeed="10" />
    <vehicle id="N_S_168" type="standard_car" route="N_S" depart="541" departLane="random" departSpeed="10" />
    <vehicle id="E_S_169" type="standard_car" route="E_S" depart="543" departLane="random" departSpeed="10" />
    <vehicle id="S_N_170" type="standard_car" route="S_N" depart="544" departLane="random" departSpeed="10" />
    <vehicle id="S_N_171" type="standard_car" route="S_N" depart="546" departLane="random" departSpeed="10" />
    <vehicle id="S_N_172" type="standard_car" route="S_N" depart="548" departLane="random" departSpeed="10" />
    <vehicle id="N_S_173" type="standard_car" route="N_S" depart="551" departLane="random" departSpeed="10" />
    <vehicle id="W_S_174" type="standard_car" route="W_S" depart="553" departLane="random" departSpeed="10" />
    <vehicle id="N_S_175" type="standard_car" route="N_S" depart="553" departLane="random" departSpeed="10" />
    <vehicle id="S_N_176" type="standard_car" route="S_N" depart="553" departLane="random" departSpeed="10" />
    <vehicle id="E_W_177" type="standard_car" route="E_W" depart="560" departLane="random" departSpeed="10" />
    <vehicle id="W_E_178" type="standard_car" route="W_E" depart="564" departLane="random" departSpeed="10" />
    <vehicle id="S_E_179" type="standard_car" route="S_E" depart="565" departLane="random" departSpeed="10" />
    <vehicle id="N_W_180" type="standard_car" route="N_W" depart="565" departLane="random" departSpeed="10" />
    <vehicle id="N_E_181" type="standard_car" route="N_E" depart="566" departLane="random" departSpeed="10" />
    <vehicle id="E_W_182" type="standard_car" route="E_W" depart="567" departLane="random" departSpeed="10" />
    <vehicle id="W_E_183" type="standard_car" route="W_E" depart="567" departLane="random" departSpeed="10" />
    <vehicle id="E_W_184" type="standard_car" route="E_W" depart="577" departLane="random" departSpeed="10" />
    <vehicle id="S_E_185" type="standard_car" route="S_E" depart="577" departLane="random" departSpeed="10" />
    <vehicle id="E_W_186" type="standard_car" route="E_W" depart="578" departLane="random" departSpeed="10" />
    <vehicle id="S_N_187" type="standard_car" route="S_N" depart="579" departLane="random" departSpeed="10" />
    <vehicle id="N_W_188" type="standard_car" route="N_W" depart="580" departLane="random" departSpeed="10" />
    <vehicle id="W_S_189" type="standard_car" route="W_S" depart="580" departLane="random" departSpeed="10" />
    <vehicle id="E_S_190" type="standard_car" route="E_S" depart="583" departLane="random" departSpeed="10" />
    <vehicle id="S_N_191" type="standard_car" route="S_N" depart="583" departLane="random" departSpeed="10" />
    <vehicle id="W_E_192" type="standard_car" route="W_E" depart="585" departLane="random" departSpeed="10" />
    <vehicle id="S_E_193" type="standard_car" route="S_E" depart="587" departLane="random" departSpeed="10" />
    <vehicle id="W_E_194" type="standard_car" route="W_E" depart="588" departLane="random" departSpeed="10" />
    <vehicle id="W_E_195" type="standard_car" route="W_E" depart="588" departLane="random" departSpeed="10" />
    <vehicle id="S_N_196" type="standard_car" route="S_N" depart="590" departLane="random" departSpeed="10" />
    <vehicle id="E_W_197" type="standard_car" route="E_W" depart="592" departLane="random" departSpeed="10" />
    <vehicle id="W_E_198" type="standard_car" route="W_E" depart="596" departLane="random" departSpeed="10" />
    <vehicle id="W_E_199" type="standard_car" route="W_E" depart="596" departLane="random" departSpeed="10" />
    <vehicle id="S_W_200" type="standard_car" route="S_W" depart="596" departLane="random" departSpeed="10" />
    <vehicle id="E_W_201" type="standard_car" route="E_W" depart="602" departLane="random" departSpeed="10" />
    <vehicle id="N_S_202" type="standard_car" route="N_S" depart="603" departLane="random" departSpeed="10" />
    <vehicle id="S_N_203" type="standard_car" route="S_N" depart="605" departLane="random" departSpeed="10" />
    <vehicle id="E_S_204" type="standard_car" route="E_S" depart="606" departLane="random" departSpeed="10" />
    <vehicle id="N_E_205" type="standard_car" route="N_E" depart="607" departLane="random" departSpeed="10" />
    <vehicle id="E_W_206" type="standard_car" route="E_W" depart="611" departLane="random" departSpeed="10" />
    <vehicle id="N_E_207" type="standard_car" route="N_E" depart="611" departLane="random" departSpeed="10" />
    <vehicle id="S_N_208" type="standard_car" route="S_N" depart="612" departLane="random" departSpeed="10" />
    <vehicle id="S_N_209" type="standard_car" route="S_N" depart="615" departLane="random" departSpeed="10" />
    <vehicle id="S_N_210" type="standard_car" route="S_N" depart="616" departLane="random" departSpeed="10" />
    <vehicle id="E_W_211" type="standard_car" route="E_W" depart="617" departLane="random" departSpeed="10" />
    <vehicle id="N_S_212" type="standard_car" route="N_S" depart="617" departLane="random" departSpeed="10" />
    <vehicle id="W_N_213" type="standard_car" route="W_N" depart="618" departLane="random" departSpeed="10" />
    <vehicle id="E_W_214" type="standard_car" route="E_W" depart="622" departLane="random" departSpeed="10" />
    <vehicle id="E_W_215" type="standard_car" route="E_W" depart="623" departLane="random" departSpeed="10" />
    <vehicle id="E_W_216" type="standard_car" route="E_W" depart="625" departLane="random" departSpeed="10" />
    <vehicle id="E_S_217" type="standard_car" route="E_S" depart="625" departLane="random" departSpeed="10" />
    <vehicle id="E_W_218" type="standard_car" route="E_W" depart="627" departLane="random" departSpeed="10" />
    <vehicle id="S_W_219" type="standard_car" route="S_W" depart="629" departLane="random" departSpeed="10" />
    <vehicle id="S_N_220" type="standard_car" route="S_N" depart="629" departLane="random" departSpeed="10" />
    <vehicle id="S_N_221" type="standard_car" route="S_N" depart="631" departLane="random" departSpeed="10" />
    <vehicle id="W_N_222" type="standard_car" route="W_N" depart="634" departLane="random" departSpeed="10" />
    <vehicle id="N_E_223" type="standard_car" route="N_E" depart="637" departLane="random" departSpeed="10" />
    <vehicle id="W_E_224" type="standard_car" route="W_E" depart="644" departLane="random" departSpeed="10" />
    <vehicle id="E_W_225" type="standard_car" route="E_W" depart="645" departLane="random" departSpeed="10" />
    <vehicle id="W_N_226" type="standard_car" route="W_N" depart="649" departLane="random" departSpeed="10" />
    <vehicle id="E_W_227" type="standard_car" route="E_W" depart="649" departLane="random" departSpeed="10" />
    <vehicle id="E_S_228" type="standard_car" route="E_S" depart="650" departLane="random" departSpeed="10" />
    <vehicle id="N_S_229" type="standard_car" route="N_S" depart="650" departLane="random" departSpeed="10" />
    <vehicle id="W_E_230" type="standard_car" route="W_E" depart="654" departLane="random" departSpeed="10" />
    <vehicle id="S_E_231" type="standard_car" route="S_E" depart="654" departLane="random" departSpeed="10" />
    <vehicle id="W_E_232" type="standard_car" route="W_E" depart="656" departLane="random" departSpeed="10" />
    <vehicle id="S_N_233" type="standard_car" route="S_N" depart="657" departLane="random" departSpeed="10" />
    <vehicle id="N_S_234" type="standard_car" route="N_S" depart="659" departLane="random" departSpeed="10" />
    <vehicle id="S_N_235" type="standard_car" route="S_N" depart="662" departLane="random" departSpeed="10" />
    <vehicle id="S_N_236" type="standard_car" route="S_N" depart="664" departLane="random" departSpeed="10" />
    <vehicle id="W_E_237" type="standard_car" route="W_E" depart="666" departLane="random" departSpeed="10" />
    <vehicle id="N_S_238" type="standard_car" route="N_S" depart="667" departLane="random" departSpeed="10" />
    <vehicle id="N_W_239" type="standard_car" route="N_W" depart="669" departLane="random" departSpeed="10" />
    <vehicle id="E_W_240" type="standard_car" route="E_W" depart="669" departLane="random" departSpeed="10" />
    <vehicle id="E_S_241" type="standard_car" route="E_S" depart="673" departLane="random" departSpeed="10" />
    <vehicle id="S_N_242" type="standard_car" route="S_N" depart="677" departLane="random" departSpeed="10" />
    <vehicle id="W_E_243" type="standard_car" route="W_E" depart="677" departLane="random" departSpeed="10" />
    <vehicle id="S_N_244" type="standard_car" route="S_N" depart="683" departLane="random" departSpeed="10" />
    <vehicle id="W_E_245" type="standard_car" route="W_E" depart="684" departLane="random" departSpeed="10" />
    <vehicle id="N_S_246" type="standard_car" route="N_S" depart="685" departLane="random" departSpeed="10" />
    <vehicle id="W_E_247" type="standard_car" route="W_E" depart="687" departLane="random" departSpeed="10" />
    <vehicle id="S_N_248" type="standard_car" route="S_N" depart="687" departLane="random" departSpeed="10" />
    <vehicle id="N_S_249" type="standard_car" route="N_S" depart="688" departLane="random" departSpeed="10" />
    <vehicle id="N_S_250" type="standard_car" route="N_S" depart="692" departLane="random" departSpeed="10" />
    <vehicle id="W_N_251" type="standard_car" route="W_N" depart="694" departLane="random" departSpeed="10" />
    <vehicle id="W_E_252" type="standard_car" route="W_E" depart="695" departLane="random" departSpeed="10" />
    <vehicle id="N_S_253" type="standard_car" route="N_S" depart="695" departLane="random" departSpeed="10" />
    <vehicle id="S_E_254" type="standard_car" route="S_E" depart="700" departLane="random" departSpeed="10" />
    <vehicle id="S_N_255" type="standard_car" route="S_N" depart="702" departLane="random" departSpeed="10" />
    <vehicle id="E_W_256" type="standard_car" route="E_W" depart="704" departLane="random" departSpeed="10" />
    <vehicle id="N_S_257" type="standard_car" route="N_S" depart="704" departLane="random" departSpeed="10" />
    <vehicle id="S_N_258" type="standard_car" route="S_N" depart="704" departLane="random" departSpeed="10" />
    <vehicle id="N_S_259" type="standard_car" route="N_S" depart="706" departLane="random" departSpeed="10" />
    <vehicle id="S_N_260" type="standard_car" route="S_N" depart="706" departLane="random" departSpeed="10" />
    <vehicle id="W_E_261" type="standard_car" route="W_E" depart="706" departLane="random" departSpeed="10" />