<routes>
    <!-- Define emergency vehicle type -->
    <vType id="emergency" accel="3.0" decel="6.0" color="1,0,0"
           maxSpeed="20" sigma="0.5" emergency="true" />
    <!-- Define standard vehicle type -->
    <vType id="standard_car" accel="1.0" decel="4.5" length="5.0"
           minGap="2.5" maxSpeed="25" sigma="0.5" />

    <route id="W_N" edges="W2TL TL2N"/>
    <route id="W_E" edges="W2TL TL2E"/>
    <route id="W_S" edges="W2TL TL2S"/>
    <route id="N_W" edges="N2TL TL2W"/>
    <route id="N_E" edges="N2TL TL2E"/>
    <route id="N_S" edges="N2TL TL2S"/>
    <route id="E_W" edges="E2TL TL2W"/>
    <route id="E_N" edges="E2TL TL2N"/>
    <route id="E_S" edges="E2TL TL2S"/>
    <route id="S_W" edges="S2TL TL2W"/>
    <route id="S_N" edges="S2TL TL2N"/>
    <route id="S_E" edges="S2TL TL2E"/>
    <vehicle id="E_W_0" type="standard_car" route="E_W" depart="25" departLane="random" departSpeed="10" />
    <vehicle id="N_E_1" type="standard_car" route="N_E" depart="26" departLane="random" departSpeed="10" />
    <vehicle id="W_S_2" type="standard_car" route="W_S" depart="65" departLane="random" departSpeed="10" />
    <vehicle id="N_S_3" type="standard_car" route="N_S" depart="80" departLane="random" departSpeed="10" />
    <vehicle id="E_W_4" type="standard_car" route="E_W" depart="82" departLane="random" departSpeed="10" />
    <vehicle id="S_N_5" type="standard_car" route="S_N" depart="93" departLane="random" departSpeed="10" />
    <vehicle id="W_E_6" type="standard_car" route="W_E" depart="98" departLane="random" departSpeed="10" />
    <vehicle id="E_W_7" type="standard_car" route="E_W" depart="98" departLane="random" departSpeed="10" />
    <vehicle id="N_W_8" type="standard_car" route="N_W" depart="110" departLane="random" departSpeed="10" />
    <vehicle id="E_W_9" type="standard_car" route="E_W" depart="117" departLane="random" departSpeed="10" />
    <vehicle id="S_N_10" type="standard_car" route="S_N" depart="120" departLane="random" departSpeed="10" />
    <vehicle id="N_S_11" type="standard_car" route="N_S" depart="121" departLane="random" departSpeed="10" />
    <vehicle id="N_S_12" type="standard_car" route="N_S" depart="130" departLane="random" departSpeed="10" />
    <vehicle id="S_N_13" type="standard_car" route="S_N" depart="136" departLane="random" departSpeed="10" />
    <vehicle id="E_W_14" type="standard_car" route="E_W" depart="137" departLane="random" departSpeed="10" />
    <vehicle id="E_N_15" type="standard_car" route="E_N" depart="138" departLane="random" departSpeed="10" />
    <vehicle id="W_E_16" type="standard_car" route="W_E" depart="141" departLane="random" departSpeed="10" />
    <vehicle id="E_W_17" type="standard_car" route="E_W" depart="142" departLane="random" departSpeed="10" />
    <vehicle id="W_E_18" type="standard_car" route="W_E" depart="142" departLane="random" departSpeed="10" />
    <vehicle id="S_E_19" type="standard_car" route="S_E" depart="145" departLane="random" departSpeed="10" />
    <vehicle id="W_N_20" type="standard_car" route="W_N" depart="146" departLane="random" departSpeed="10" />
    <vehicle id="W_E_21" type="standard_car" route="W_E" depart="153" departLane="random" departSpeed="10" />
    <vehicle id="E_S_22" type="standard_car" route="E_S" depart="156" departLane="random" departSpeed="10" />
    <vehicle id="W_E_23" type="standard_car" route="W_E" depart="158" departLane="random" departSpeed="10" />
    <vehicle id="E_W_24" type="standard_car" route="E_W" depart="161" departLane="random" departSpeed="10" />
    <vehicle id="W_N_25" type="standard_car" route="W_N" depart="166" departLane="random" departSpeed="10" />
    <vehicle id="S_N_26" type="standard_car" route="S_N" depart="171" departLane="random" departSpeed="10" />
    <vehicle id="S_N_27" type="standard_car" route="S_N" depart="173" departLane="random" departSpeed="10" />
    <vehicle id="E_W_28" type="standard_car" route="E_W" depart="177" departLane="random" departSpeed="10" />
    <vehicle id="W_N_29" type="standard_car" route="W_N" depart="181" departLane="random" departSpeed="10" />
    <vehicle id="S_N_30" type="standard_car" route="S_N" depart="182" departLane="random" departSpeed="10" />
    <vehicle id="W_E_31" type="standard_car" route="W_E" depart="183" departLane="random" departSpeed="10" />
    <vehicle id="E_W_32" type="standard_car" route="E_W" depart="185" departLane="random" departSpeed="10" />
    <vehicle id="S_N_33" type="standard_car" route="S_N" depart="186" departLane="random" departSpeed="10" />
    <vehicle id="S_E_34" type="standard_car" route="S_E" depart="186" departLane="random" departSpeed="10" />
    <vehicle id="S_N_35" type="standard_car" route="S_N" depart="195" departLane="random" departSpeed="10" />
    <vehicle id="S_E_36" type="standard_car" route="S_E" depart="196" departLane="random" departSpeed="10" />
    <vehicle id="W_N_37" type="standard_car" route="W_N" depart="200" departLane="random" departSpeed="10" />
    <vehicle id="S_N_38" type="standard_car" route="S_N" depart="203" departLane="random" departSpeed="10" />
    <vehicle id="E_W_39" type="standard_car" route="E_W" depart="205" departLane="random" departSpeed="10" />
    <vehicle id="S_N_40" type="standard_car" route="S_N" depart="209" departLane="random" departSpeed="10" />
    <vehicle id="N_S_41" type="standard_car" route="N_S" depart="215" departLane="random" departSpeed="10" />
    <vehicle id="S_N_42" type="standard_car" route="S_N" depart="216" departLane="random" departSpeed="10" />
    <vehicle id="W_S_43" type="standard_car" route="W_S" depart="219" departLane="random" departSpeed="10" />
    <vehicle id="N_S_44" type="standard_car" route="N_S" depart="220" departLane="random" departSpeed="10" />
    <vehicle id="E_N_45" type="standard_car" route="E_N" depart="226" departLane="random" departSpeed="10" />
    <vehicle id="S_N_46" type="standard_car" route="S_N" depart="228" departLane="random" departSpeed="10" />
    <vehicle id="S_W_47" type="standard_car" route="S_W" depart="230" departLane="random" departSpeed="10" />
    <vehicle id="S_N_48" type="standard_car" route="S_N" depart="232" departLane="random" departSpeed="10" />
    <vehicle id="N_S_49" type="standard_car" route="N_S" depart="232" departLane="random" departSpeed="10" />
    <vehicle id="E_W_50" type="standard_car" route="E_W" depart="233" departLane="random" departSpeed="10" />
    <vehicle id="E_W_51" type="standard_car" route="E_W" depart="233" departLane="random" departSpeed="10" />
    <vehicle id="N_E_52" type="standard_car" route="N_E" depart="233" departLane="random" departSpeed="10" />
    <vehicle id="S_W_53" type="standard_car" route="S_W" depart="235" departLane="random" departSpeed="10" />
    <vehicle id="S_N_54" type="standard_car" route="S_N" depart="237" departLane="random" departSpeed="10" />
    <vehicle id="N_W_55" type="standard_car" route="N_W" depart="239" departLane="random" departSpeed="10" />
    <vehicle id="W_E_56" type="standard_car" route="W_E" depart="240" departLane="random" departSpeed="10" />
    <vehicle id="S_N_57" type="standard_car" route="S_N" depart="243" departLane="random" departSpeed="10" />
    <vehicle id="W_E_58" type="standard_car" route="W_E" depart="244" departLane="random" departSpeed="10" />
    <vehicle id="N_S_59" type="standard_car" route="N_S" depart="245" departLane="random" departSpeed="10" />
    <vehicle id="W_E_60" type="standard_car" route="W_E" depart="247" departLane="random" departSpeed="10" />
    <vehicle id="W_E_61" type="standard_car" route="W_E" depart="249" departLane="random" departSpeed="10" />
    <vehicle id="E_W_62" type="standard_car" route="E_W" depart="250" departLane="random" departSpeed="10" />
    <vehicle id="W_E_63" type="standard_car" route="W_E" depart="254" departLane="random" departSpeed="10" />
    <vehicle id="E_S_64" type="standard_car" route="E_S" depart="255" departLane="random" departSpeed="10" />
    <vehicle id="E_W_65" type="standard_car" route="E_W" depart="256" departLane="random" departSpeed="10" />
    <vehicle id="E_S_66" type="standard_car" route="E_S" depart="260" departLane="random" departSpeed="10" />
    <vehicle id="N_S_67" type="standard_car" route="N_S" depart="260" departLane="random" departSpeed="10" />
    <vehicle id="E_W_68" type="standard_car" route="E_W" depart="261" departLane="random" departSpeed="10" />
    <vehicle id="S_W_69" type="standard_car" route="S_W" depart="261" departLane="random" departSpeed="10" />
    <vehicle id="N_S_70" type="standard_car" route="N_S" depart="261" departLane="random" departSpeed="10" />
    <vehicle id="S_N_71" type="standard_car" route="S_N" depart="262" departLane="random" departSpeed="10" />
    <vehicle id="N_S_72" type="standard_car" route="N_S" depart="262" departLane="random" departSpeed="10" />
    <vehicle id="W_E_73" type="standard_car" route="W_E" depart="269" departLane="random" departSpeed="10" />
    <vehicle id="N_S_74" type="standard_car" route="N_S" depart="272" departLane="random" departSpeed="10" />
    <vehicle id="N_S_75" type="standard_car" route="N_S" depart="273" departLane="random" departSpeed="10" />
    <vehicle id="W_E_76" type="standard_car" route="W_E" depart="275" departLane="random" departSpeed="10" />
    <vehicle id="W_E_77" type="standard_car" route="W_E" depart="276" departLane="random" departSpeed="10" />
    <vehicle id="N_S_78" type="standard_car" route="N_S" depart="276" departLane="random" departSpeed="10" />
    <vehicle id="S_N_79" type="standard_car" route="S_N" depart="277" departLane="random" departSpeed="10" />
    <vehicle id="E_W_80" type="standard_car" route="E_W" depart="278" departLane="random" departSpeed="10" />
    <vehicle id="W_N_81" type="standard_car" route="W_N" depart="279" departLane="random" departSpeed="10" />
    <vehicle id="E_W_82" type="standard_car" route="E_W" depart="284" departLane="random" departSpeed="10" />
    <vehicle id="E_W_83" type="standard_car" route="E_W" depart="284" departLane="random" departSpeed="10" />
    <vehicle id="E_W_84" type="standard_car" route="E_W" depart="286" departLane="random" departSpeed="10" />
    <vehicle id="E_W_85" type="standard_car" route="E_W" depart="286" departLane="random" departSpeed="10" />
    <vehicle id="E_W_86" type="standard_car" route="E_W" depart="297" departLane="random" departSpeed="10" />
    <vehicle id="W_S_87" type="standard_car" route="W_S" depart="298" departLane="random" departSpeed="10" />
    <vehicle id="W_E_88" type="standard_car" route="W_E" depart="299" departLane="random" departSpeed="10" />
    <vehicle id="N_E_89" type="standard_car" route="N_E" depart="299" departLane="random" departSpeed="10" />
    <vehicle id="E_W_90" type="standard_car" route="E_W" depart="300" departLane="random" departSpeed="10" />
    <vehicle id="N_W_91" type="standard_car" route="N_W" depart="302" departLane="random" departSpeed="10" />
    <vehicle id="W_E_92" type="standard_car" route="W_E" depart="304" departLane="random" departSpeed="10" />
    <vehicle id="N_E_93" type="standard_car" route="N_E" depart="306" departLane="random" departSpeed="10" />
    <vehicle id="W_E_94" type="standard_car" route="W_E" depart="306" departLane="random" departSpeed="10" />
    <vehicle id="S_W_95" type="standard_car" route="S_W" depart="307" departLane="random" departSpeed="10" />
    <vehicle id="W_E_96" type="standard_car" route="W_E" depart="309" departLane="random" departSpeed="10" />
    <vehicle id="E_W_97" type="standard_car" route="E_W" depart="314" departLane="random" departSpeed="10" />
    <vehicle id="N_W_98" type="standard_car" route="N_W" depart="314" departLane="random" departSpeed="10" />
    <vehicle id="N_S_99" type="standard_car" route="N_S" depart="316" departLane="random" departSpeed="10" />
    <vehicle id="S_W_100" type="standard_car" route="S_W" depart="318" departLane="random" departSpeed="10" />
    <vehicle id="N_S_101" type="standard_car" route="N_S" depart="319" departLane="random" departSpeed="10" />
    <vehicle id="W_E_102" type="standard_car" route="W_E" depart="320" departLane="random" departSpeed="10" />
    <vehicle id="N_S_103" type="standard_car" route="N_S" depart="326" departLane="random" departSpeed="10" />
    <vehicle id="S_N_104" type="standard_car" route="S_N" depart="327" departLane="random" departSpeed="10" />
    <vehicle id="E_S_105" type="standard_car" route="E_S" depart="329" departLane="random" departSpeed="10" />
    <vehicle id="E_S_106" type="standard_car" route="E_S" depart="329" departLane="random" departSpeed="10" />
    <vehicle id="E_W_107" type="standard_car" route="E_W" depart="332" departLane="random" departSpeed="10" />
    <vehicle id="N_S_108" type="standard_car" route="N_S" depart="334" departLane="random" departSpeed="10" />
    <vehicle id="E_W_109" type="standard_car" route="E_W" depart="334" departLane="random" departSpeed="10" />
    <vehicle id="W_N_110" type="standard_car" route="W_N" depart="334" departLane="random" departSpeed="10" />
    <vehicle id="W_S_111" type="standard_car" route="W_S" depart="334" departLane="random" departSpeed="10" />
    <vehicle id="S_W_112" type="standard_car" route="S_W" depart="334" departLane="random" departSpeed="10" />
    <vehicle id="S_W_113" type="standard_car" route="S_W" depart="335" departLane="random" departSpeed="10" />
    <vehicle id="S_N_114" type="standard_car" route="S_N" depart="342" departLane="random" departSpeed="10" />
    <vehicle id="S_N_115" type="standard_car" route="S_N" depart="343" departLane="random" departSpeed="10" />
    <vehicle id="S_N_116" type="standard_car" route="S_N" depart="344" departLane="random" departSpeed="10" />
    <vehicle id="N_S_117" type="standard_car" route="N_S" depart="345" departLane="random" departSpeed="10" />
    <vehicle id="N_S_118" type="standard_car" route="N_S" depart="346" departLane="random" departSpeed="10" />
    <vehicle id="N_S_119" type="standard_car" route="N_S" depart="346" departLane="random" departSpeed="10" />
    <vehicle id="S_N_120" type="standard_car" route="S_N" depart="348" departLane="random" departSpeed="10" />
    <vehicle id="N_S_121" type="standard_car" route="N_S" depart="348" departLane="random" departSpeed="10" />
    <vehicle id="N_S_122" type="standard_car" route="N_S" depart="350" departLane="random" departSpeed="10" />
    <vehicle id="N_S_123" type="standard_car" route="N_S" depart="357" departLane="random" departSpeed="10" />
    <vehicle id="W_S_124" type="standard_car" route="W_S" depart="358" departLane="random" departSpeed="10" />
    <vehicle id="W_E_125" type="standard_car" route="W_E" depart="360" departLane="random" departSpeed="10" />
    <vehicle id="W_E_126" type="standard_car" route="W_E" depart="360" departLane="random" departSpeed="10" />
    <vehicle id="S_E_127" type="standard_car" route="S_E" depart="361" departLane="random" departSpeed="10" />
    <vehicle id="W_E_128" type="standard_car" route="W_E" depart="366" departLane="random" departSpeed="10" />
    <vehicle id="W_E_129" type="standard_car" route="W_E" depart="368" departLane="random" departSpeed="10" />
    <vehicle id="S_N_130" type="standard_car" route="S_N" depart="371" departLane="random" departSpeed="10" />
    <vehicle id="N_S_131" type="standard_car" route="N_S" depart="371" departLane="random" departSpeed="10" />
    <vehicle id="W_E_132" type="standard_car" route="W_E" depart="374" departLane="random" departSpeed="10" />
    <vehicle id="S_N_133" type="standard_car" route="S_N" depart="374" departLane="random" departSpeed="10" />
    <vehicle id="E_W_134" type="standard_car" route="E_W" depart="378" departLane="random" departSpeed="10" />
    <vehicle id="E_W_135" type="standard_car" route="E_W" depart="378" departLane="random" departSpeed="10" />
    <vehicle id="S_N_136" type="standard_car" route="S_N" depart="380" departLane="random" departSpeed="10" />
    <vehicle id="S_N_137" type="standard_car" route="S_N" depart="386" departLane="random" departSpeed="10" />
    <vehicle id="E_W_138" type="standard_car" route="E_W" depart="386" departLane="random" departSpeed="10" />
    <vehicle id="E_N_139" type="standard_car" route="E_N" depart="387" departLane="random" departSpeed="10" />
    <vehicle id="N_S_140" type="standard_car" route="N_S" depart="387" departLane="random" departSpeed="10" />
    <vehicle id="W_N_141" type="standard_car" route="W_N" depart="389" departLane="random" departSpeed="10" />
    <vehicle id="N_W_142" type="standard_car" route="N_W" depart="392" departLane="random" departSpeed="10" />
    <vehicle id="W_E_143" type="standard_car" route="W_E" depart="393" departLane="random" departSpeed="10" />
    <vehicle id="N_S_144" type="standard_car" route="N_S" depart="396" departLane="random" departSpeed="10" />
    <vehicle id="N_S_145" type="standard_car" route="N_S" depart="398" departLane="random" departSpeed="10" />
    <vehicle id="W_S_146" type="standard_car" route="W_S" depart="398" departLane="random" departSpeed="10" />
    <vehicle id="W_E_147" type="standard_car" route="W_E" depart="400" departLane="random" departSpeed="10" />
    <vehicle id="E_S_148" type="standard_car" route="E_S" depart="402" departLane="random" departSpeed="10" />
    <vehicle id="E_N_149" type="standard_car" route="E_N" depart="403" departLane="random" departSpeed="10" />
    <vehicle id="W_E_150" type="standard_car" route="W_E" depart="404" departLane="random" departSpeed="10" />
    <vehicle id="W_E_151" type="standard_car" route="W_E" depart="404" departLane="random" departSpeed="10" />
    <vehicle id="E_W_152" type="standard_car" route="E_W" depart="404" departLane="random" departSpeed="10" />
    <vehicle id="S_W_153" type="standard_car" route="S_W" depart="406" departLane="random" departSpeed="10" />
    <vehicle id="S_N_154" type="standard_car" route="S_N" depart="406" departLane="random" departSpeed="10" />
    <vehicle id="E_W_155" type="standard_car" route="E_W" depart="406" departLane="random" departSpeed="10" />
    <vehicle id="S_N_156" type="standard_car" route="S_N" depart="407" departLane="random" departSpeed="10" />
    <vehicle id="S_W_157" type="standard_car" route="S_W" depart="408" departLane="random" departSpeed="10" />
    <vehicle id="N_S_158" type="standard_car" route="N_S" depart="409" departLane="random" departSpeed="10" />
    <vehicle id="S_W_159" type="standard_car" route="S_W" depart="410" departLane="random" departSpeed="10" />
    <vehicle id="S_N_160" type="standard_car" route="S_N" depart="411" departLane="random" departSpeed="10" />
    <vehicle id="N_S_161" type="standard_car" route="N_S" depart="411" departLane="random" departSpeed="10" />
    <vehicle id="E_W_162" type="standard_car" route="E_W" depart="412" departLane="random" departSpeed="10" />
    <vehicle id="S_W_163" type="standard_car" route="S_W" depart="413" departLane="random" departSpeed="10" />
    <vehicle id="S_N_164" type="standard_car" route="S_N" depart="414" departLane="random" departSpeed="10" />
    <vehicle id="E_W_165" type="standard_car" route="E_W" depart="414" departLane="random" departSpeed="10" />
    <vehicle id="S_N_166" type="standard_car" route="S_N" depart="417" departLane="random" departSpeed="10" />
    <vehicle id="S_N_167" type="standard_car" route="S_N" depart="418" departLane="random" departSpeed="10" />
    <vehicle id="N_S_168" type="standard_car" route="N_S" depart="418" departLane="random" departSpeed="10" />
    <vehicle id="W_E_169" type="standard_car" route="W_E" depart="418" departLane="random" departSpeed="10" />
    <vehicle id="N_S_170" type="standard_car" route="N_S" depart="418" departLane="random" departSpeed="10" />
    <vehicle id="S_N_171" type="standard_car" route="S_N" depart="419" departLane="random" departSpeed="10" />
    <vehicle id="N_S_172" type="standard_car" route="N_S" depart="420" departLane="random" departSpeed="10" />
    <vehicle id="S_N_173" type="standard_car" route="S_N" depart="423" departLane="random" departSpeed="10" />
    <vehicle id="S_N_174" type="standard_car" route="S_N" depart="426" departLane="random" departSpeed="10" />
    <vehicle id="W_N_175" type="standard_car" route="W_N" depart="427" departLane="random" departSpeed="10" />
    <vehicle id="E_N_176" type="standard_car" route="E_N" depart="427" departLane="random" departSpeed="10" />
    <vehicle id="S_N_177" type="standard_car" route="S_N" depart="430" departLane="random" departSpeed="10" />
    <vehicle id="E_W_178" type="standard_car" route="E_W" depart="432" departLane="random" departSpeed="10" />
    <vehicle id="W_E_179" type="standard_car" route="W_E" depart="434" departLane="random" departSpeed="10" />
    <vehicle id="N_S_180" type="standard_car" route="N_S" depart="435" departLane="random" departSpeed="10" />
    <vehicle id="S_N_181" type="standard_car" route="S_N" depart="436" departLane="random" departSpeed="10" />
    <vehicle id="E_W_182" type="standard_car" route="E_W" depart="436" departLane="random" departSpeed="10" />
    <vehicle id="N_S_183" type="standard_car" route="N_S" depart="437" departLane="random" departSpeed="10" />
    <vehicle id="S_N_184" type="standard_car" route="S_N" depart="438" departLane="random" departSpeed="10" />
    <vehicle id="E_W_185" type="standard_car" route="E_W" depart="439" departLane="random" departSpeed="10" />
    <vehicle id="W_E_186" type="standard_car" route="W_E" depart="441" departLane="random" departSpeed="10" />
    <vehicle id="N_S_187" type="standard_car" route="N_S" depart="443" departLane="random" departSpeed="10" />
    <vehicle id="S_W_188" type="standard_car" route="S_W" depart="448" departLane="random" departSpeed="10" />
    <vehicle id="S_N_189" type="standard_car" route="S_N" depart="449" departLane="random" departSpeed="10" />
    <vehicle id="E_W_190" type="standard_car" route="E_W" depart="449" departLane="random" departSpeed="10" />
    <vehicle id="N_S_191" type="standard_car" route="N_S" depart="449" departLane="random" departSpeed="10" />
    <vehicle id="S_E_192" type="standard_car" route="S_E" depart="452" departLane="random" departSpeed="10" />
    <vehicle id="E_W_193" type="standard_car" route="E_W" depart="452" departLane="random" departSpeed="10" />
    <vehicle id="N_S_194" type="standard_car" route="N_S" depart="453" departLane="random" departSpeed="10" />
    <vehicle id="N_W_195" type="standard_car" route="N_W" depart="456" departLane="random" departSpeed="10" />
    <vehicle id="N_E_196" type="standard_car" route="N_E" depart="457" departLane="random" departSpeed="10" />
    <vehicle id="W_E_197" type="standard_car" route="W_E" depart="458" departLane="random" departSpeed="10" />
    <vehicle id="E_S_198" type="standard_car" route="E_S" depart="458" departLane="random" departSpeed="10" />
    <vehicle id="N_S_199" type="standard_car" route="N_S" depart="458" departLane="random" departSpeed="10" />
    <vehicle id="E_W_200" type="standard_car" route="E_W" depart="459" departLane="random" departSpeed="10" />
    <vehicle id="N_S_201" type="standard_car" route="N_S" depart="461" departLane="random" departSpeed="10" />
    <vehicle id="W_E_202" type="standard_car" route="W_E" depart="461" departLane="random" departSpeed="10" />
    <vehicle id="S_N_203" type="standard_car" route="S_N" depart="461" departLane="random" departSpeed="10" />
    <vehicle id="S_W_204" type="standard_car" route="S_W" depart="467" departLane="random" departSpeed="10" />
    <vehicle id="S_N_205" type="standard_car" route="S_N" depart="467" departLane="random" departSpeed="10" />
    <vehicle id="S_E_206" type="standard_car" route="S_E" depart="468" departLane="random" departSpeed="10" />
    <vehicle id="E_W_207" type="standard_car" route="E_W" depart="468" departLane="random" departSpeed="10" />
    <vehicle id="S_W_208" type="standard_car" route="S_W" depart="468" departLane="random" departSpeed="10" />
    <vehicle id="W_E_209" type="standard_car" route="W_E" depart="469" departLane="random" departSpeed="10" />
    <vehicle id="S_E_210" type="standard_car" route="S_E" depart="469" departLane="random" departSpeed="10" />
    <vehicle id="S_E_211" type="standard_car" route="S_E" depart="470" departLane="random" departSpeed="10" />
    <vehicle id="W_E_212" type="standard_car" route="W_E" depart="471" departLane="random" departSpeed="10" />
    <vehicle id="S_N_213" type="standard_car" route="S_N" depart="473" departLane="random" departSpeed="10" />
    <vehicle id="S_N_214" type="standard_car" route="S_N" depart="474" departLane="random" departSpeed="10" />
    <vehicle id="S_N_215" type="standard_car" route="S_N" depart="476" departLane="random" departSpeed="10" />
    <vehicle id="N_S_216" type="standard_car" route="N_S" depart="478" departLane="random" departSpeed="10" />
    <vehicle id="N_S_217" type="standard_car" route="N_S" depart="478" departLane="random" departSpeed="10" />
    <vehicle id="S_N_218" type="standard_car" route="S_N" depart="479" departLane="random" departSpeed="10" />
    <vehicle id="N_S_219" type="standard_car" route="N_S" depart="479" departLane="random" departSpeed="10" />
    <vehicle id="E_N_220" type="standard_car" route="E_N" depart="480" departLane="random" departSpeed="10" />
    <vehicle id="W_E_221" type="standard_car" route="W_E" depart="481" departLane="random" departSpeed="10" />
    <vehicle id="N_E_222" type="standard_car" route="N_E" depart="482" departLane="random" departSpeed="10" />
    <vehicle id="S_E_223" type="standard_car" route="S_E" depart="482" departLane="random" departSpeed="10" />
    <vehicle id="N_S_224" type="standard_car" route="N_S" depart="483" departLane="random" departSpeed="10" />
    <vehicle id="W_E_225" type="standard_car" route="W_E" depart="484" departLane="random" departSpeed="10" />
    <vehicle id="E_W_226" type="standard_car" route="E_W" depart="486" departLane="random" departSpeed="10" />
    <vehicle id="E_W_227" type="standard_car" route="E_W" depart="487" departLane="random" departSpeed="10" />
    <vehicle id="W_E_228" type="standard_car" route="W_E" depart="488" departLane="random" departSpeed="10" />
    <vehicle id="N_S_229" type="standard_car" route="N_S" depart="489" departLane="random" departSpeed="10" />
    <vehicle id="E_W_230" type="standard_car" route="E_W" depart="493" departLane="random" departSpeed="10" />
    <vehicle id="S_N_231" type="standard_car" route="S_N" depart="493" departLane="random" departSpeed="10" />
    <vehicle id="E_W_232" type="standard_car" route="E_W" depart="495" departLane="random" departSpeed="10" />
    <vehicle id="S_N_233" type="standard_car" route="S_N" depart="495" departLane="random" departSpeed="10" />
    <vehicle id="N_S_234" type="standard_car" route="N_S" depart="496" departLane="random" departSpeed="10" />
    <vehicle id="S_E_235" type="standard_car" route="S_E" depart="496" departLane="random" departSpeed="10" />
    <vehicle id="E_W_236" type="standard_car" route="E_W" depart="497" departLane="random" departSpeed="10" />
    <vehicle id="W_E_237" type="standard_car" route="W_E" depart="498" departLane="random" departSpeed="10" />
    <vehicle id="S_N_238" type="standard_car" route="S_N" depart="501" departLane="random" departSpeed="10" />
    <vehicle id="S_N_239" type="standard_car" route="S_N" depart="501" departLane="random" departSpeed="10" />
    <vehicle id="E_W_240" type="standard_car" route="E_W" depart="501" departLane="random" departSpeed="10" />
    <vehicle id="E_W_241" type="standard_car" route="E_W" depart="502" departLane="random" departSpeed="10" />
    <vehicle id="E_W_242" type="standard_car" route="E_W" depart="503" departLane="random" departSpeed="10" />
    <vehicle id="E_W_243" type="standard_car" route="E_W" depart="504" departLane="random" departSpeed="10" />
    <vehicle id="W_E_244" type="standard_car" route="W_E" depart="504" departLane="random" departSpeed="10" />
    <vehicle id="W_E_245" type="standard_car" route="W_E" depart="506" departLane="random" departSpeed="10" />
    <vehicle id="N_S_246" type="standard_car" route="N_S" depart="509" departLane="random" departSpeed="10" />
    <vehicle id="E_W_247" type="standard_car" route="E_W" depart="509" departLane="random" departSpeed="10" />
    <vehicle id="N_S_248" type="standard_car" route="N_S" depart="510" departLane="random" departSpeed="10" />
    <vehicle id="E_W_249" type="standard_car" route="E_W" depart="510" departLane="random" departSpeed="10" />
    <vehicle id="N_S_250" type="standard_car" route="N_S" depart="510" departLane="random" departSpeed="10" />
    <vehicle id="N_E_251" type="standard_car" route="N_E" depart="511" departLane="random" departSpeed="10" />
    <vehicle id="S_N_252" type="standard_car" route="S_N" depart="511" departLane="random" departSpeed="10" />
    <vehicle id="W_N_253" type="standard_car" route="W_N" depart="512" departLane="random" departSpeed="10" />
    <vehicle id="E_N_254" type="standard_car" route="E_N" depart="512" departLane="random" departSpeed="10" />
    <vehicle id="N_S_255" type="standard_car" route="N_S" depart="513" departLane="random" departSpeed="10" />
    <vehicle id="N_S_256" type="standard_car" route="N_S" depart="515" departLane="random" departSpeed="10" />
    <vehicle id="N_S_257" type="standard_car" route="N_S" depart="515" departLane="random" departSpeed="10" />
    <vehicle id="E_W_258" type="standard_car" route="E_W" depart="516" departLane="random" departSpeed="10" />
    <vehicle id="S_N_259" type="standard_car" route="S_N" depart="516" departLane="random" departSpeed="10" />
    <vehicle id="E_W_260" type="standard_car" route="E_W" depart="517" departLane="random" departSpeed="10" />
    <vehicle id="E_W_261" type="standard_car" route="E_W" depart="523" departLane="random" departSpeed="10" />
    <vehicle id="E_W_262" type="standard_car" route="E_W" depart="524" departLane="random" departSpeed="10" />