<routes>
    <!-- Define emergency vehicle type -->
    <vType id="emergency" accel="3.0" decel="6.0" color="1,0,0"
           maxSpeed="20" sigma="0.5" emergency="true" />
    <!-- Define standard vehicle type -->
    <vType id="standard_car" accel="1.0" decel="4.5" length="5.0"
           minGap="2.5" maxSpeed="25" sigma="0.5" />

    <route id="W_N" edges="W2TL TL2N"/>
    <route id="W_E" edges="W2TL TL2E"/>
    <route id="W_S" edges="W2TL TL2S"/>
    <route id="N_W" edges="N2TL TL2W"/>
    <route id="N_E" edges="N2TL TL2E"/>
    <route id="N_S" edges="N2TL TL2S"/>
    <route id="E_W" edges="E2TL TL2W"/>
    <route id="E_N" edges="E2TL TL2N"/>
    <route id="E_S" edges="E2TL TL2S"/>
    <route id="S_W" edges="S2TL TL2W"/>
    <route id="S_N" edges="S2TL TL2N"/>
    <route id="S_E" edges="S2TL TL2E"/>
    <vehicle id="emergency_0" type="emergency" route="N_S" depart="72" departLane="random" departSpeed="10" />
    <vehicle id="S_N_0" type="standard_car" route="S_N" depart="212" departLane="random" departSpeed="10" />
    <vehicle id="E_W_1" type="standard_car" route="E_W" depart="226" departLane="random" departSpeed="10" />
    <vehicle id="W_E_2" type="standard_car" route="W_E" depart="227" departLane="random" departSpeed="10" />
    <vehicle id="N_S_3" type="standard_car" route="N_S" depart="310" departLane="random" departSpeed="10" />
    <vehicle id="S_E_4" type="standard_car" route="S_E" depart="349" departLane="random" departSpeed="10" />
    <vehicle id="N_S_5" type="standard_car" route="N_S" depart="359" departLane="random" departSpeed="10" />
    <vehicle id="N_W_6" type="standard_car" route="N_W" depart="413" departLane="random" departSpeed="10" />
    <vehicle id="W_E_7" type="standard_car" route="W_E" depart="429" departLane="random" departSpeed="10" />
    <vehicle id="E_S_8" type="standard_car" route="E_S" depart="432" departLane="random" departSpeed="10" />
    <vehicle id="W_N_9" type="standard_car" route="W_N" depart="448" departLane="random" departSpeed="10" />
    <vehicle id="S_N_10" type="standard_car" route="S_N" depart="463" departLane="random" departSpeed="10" />
    <vehicle id="W_E_11" type="standard_car" route="W_E" depart="469" departLane="random" departSpeed="10" />
    <vehicle id="E_S_12" type="standard_car" route="E_S" depart="477" departLane="random" departSpeed="10" />
    <vehicle id="N_S_13" type="standard_car" route="N_S" depart="478" departLane="random" departSpeed="10" />
    <vehicle id="W_E_14" type="standard_car" route="W_E" depart="520" departLane="random" departSpeed="10" />
    <vehicle id="S_N_15" type="standard_car" route="S_N" depart="528" departLane="random" departSpeed="10" />
    <vehicle id="E_W_16" type="standard_car" route="E_W" depart="529" departLane="random" departSpeed="10" />
    <vehicle id="S_W_17" type="standard_car" route="S_W" depart="531" departLane="random" departSpeed="10" />
    <vehicle id="N_S_18" type="standard_car" route="N_S" depart="532" departLane="random" departSpeed="10" />
    <vehicle id="E_W_19" type="standard_car" route="E_W" depart="603" departLane="random" departSpeed="10" />
    <vehicle id="E_W_20" type="standard_car" route="E_W" depart="603" departLane="random" departSpeed="10" />
    <vehicle id="E_S_21" type="standard_car" route="E_S" depart="639" departLane="random" departSpeed="10" />
    <vehicle id="W_E_22" type="standard_car" route="W_E" depart="642" departLane="random" departSpeed="10" />
    <vehicle id="N_S_23" type="standard_car" route="N_S" depart="672" departLane="random" departSpeed="10" />
    <vehicle id="W_E_24" type="standard_car" route="W_E" depart="673" departLane="random" departSpeed="10" />
    <vehicle id="E_N_25" type="standard_car" route="E_N" depart="683" departLane="random" departSpeed="10" />
    <vehicle id="W_E_26" type="standard_car" route="W_E" depart="690" departLane="random" departSpeed="10" />
    <vehicle id="S_W_27" type="standard_car" route="S_W" depart="710" departLane="random" departSpeed="10" />
    <vehicle id="E_S_28" type="standard_car" route="E_S" depart="728" departLane="random" departSpeed="10" />
    <vehicle id="W_E_29" type="standard_car" route="W_E" depart="744" departLane="random" departSpeed="10" />
    <vehicle id="S_N_30" type="standard_car" route="S_N" depart="749" departLane="random" departSpeed="10" />
    <vehicle id="S_E_31" type="standard_car" route="S_E" depart="761" departLane="random" departSpeed="10" />
    <vehicle id="E_W_32" type="standard_car" route="E_W" depart="763" departLane="random" departSpeed="10" />
    <vehicle id="W_S_33" type="standard_car" route="W_S" depart="774" departLane="random" departSpeed="10" />
    <vehicle id="W_E_34" type="standard_car" route="W_E" depart="780" departLane="random" departSpeed="10" />
    <vehicle id="W_E_35" type="standard_car" route="W_E" depart="817" departLane="random" departSpeed="10" />
    <vehicle id="E_W_36" type="standard_car" route="E_W" depart="823" departLane="random" departSpeed="10" />
    <vehicle id="W_S_37" type="standard_car" route="W_S" depart="826" departLane="random" departSpeed="10" />
    <vehicle id="S_N_38" type="standard_car" route="S_N" depart="830" departLane="random" departSpeed="10" />
    <vehicle id="E_W_39" type="standard_car" route="E_W" depart="844" departLane="random" departSpeed="10" />
    <vehicle id="N_W_40" type="standard_car" route="N_W" depart="847" departLane="random" departSpeed="10" />
    <vehicle id="W_N_41" type="standard_car" route="W_N" depart="862" departLane="random" departSpeed="10" />
    <vehicle id="W_E_42" type="standard_car" route="W_E" depart="867" departLane="random" departSpeed="10" />
    <vehicle id="W_E_43" type="standard_car" route="W_E" depart="884" departLane="random" departSpeed="10" />
    <vehicle id="E_W_44" type="standard_car" route="E_W" depart="898" departLane="random" departSpeed="10" />
    <vehicle id="N_W_45" type="standard_car" route="N_W" depart="917" departLane="random" departSpeed="10" />
    <vehicle id="E_W_46" type="standard_car" route="E_W" depart="926" departLane="random" departSpeed="10" />
    <vehicle id="N_S_47" type="standard_car" route="N_S" depart="932" departLane="random" departSpeed="10" />
    <vehicle id="E_N_48" type="standard_car" route="E_N" depart="933" departLane="random" departSpeed="10" />
    <vehicle id="E_N_49" type="standard_car" route="E_N" depart="935" departLane="random" departSpeed="10" />
    <vehicle id="E_N_50" type="standard_car" route="E_N" depart="939" departLane="random" departSpeed="10" />
    <vehicle id="S_N_51" type="standard_car" route="S_N" depart="955" departLane="random" departSpeed="10" />
    <vehicle id="N_S_52" type="standard_car" route="N_S" depart="990" departLane="random" departSpeed="10" />
    <vehicle id="S_N_53" type="standard_car" route="S_N" depart="1010" departLane="random" departSpeed="10" />
    <vehicle id="W_S_54" type="standard_car" route="W_S" depart="1018" departLane="random" departSpeed="10" />
    <vehicle id="W_N_55" type="standard_car" route="W_N" depart="1038" departLane="random" departSpeed="10" />
    <vehicle id="W_N_56" type="standard_car" route="W_N" depart="1058" departLane="random" departSpeed="10" />
    <vehicle id="W_E_57" type="standard_car" route="W_E" depart="1063" departLane="random" departSpeed="10" />
    <vehicle id="N_S_58" type="standard_car" route="N_S" depart="1070" departLane="random" departSpeed="10" />
    <vehicle id="N_W_59" type="standard_car" route="N_W" depart="1094" departLane="random" departSpeed="10" />
    <vehicle id="E_W_60" type="standard_car" route="E_W" depart="1098" departLane="random" departSpeed="10" />
    <vehicle id="N_S_61" type="standard_car" route="N_S" depart="1098" departLane="random" departSpeed="10" />
    <vehicle id="W_E_62" type="standard_car" route="W_E" depart="1105" departLane="random" departSpeed="10" />
    <vehicle id="E_N_63" type="standard_car" route="E_N" depart="1130" departLane="random" departSpeed="10" />
    <vehicle id="E_W_64" type="standard_car" route="E_W" depart="1155" departLane="random" departSpeed="10" />
    <vehicle id="N_S_65" type="standard_car" route="N_S" depart="1176" departLane="random" departSpeed="10" />
    <vehicle id="W_E_66" type="standard_car" route="W_E" depart="1188" departLane="random" departSpeed="10" />
    <vehicle id="E_W_67" type="standard_car" route="E_W" depart="1198" departLane="random" departSpeed="10" />
    <vehicle id="N_S_68" type="standard_car" route="N_S" depart="1204" departLane="random" departSpeed="10" />
    <vehicle id="W_E_69" type="standard_car" route="W_E" depart="1213" departLane="random" departSpeed="10" />
    <vehicle id="N_S_70" type="standard_car" route="N_S" depart="1265" departLane="random" departSpeed="10" />
    <vehicle id="S_N_71" type="standard_car" route="S_N" depart="1266" departLane="random" departSpeed="10" />
    <vehicle id="N_E_72" type="standard_car" route="N_E" depart="1278" departLane="random" departSpeed="10" />
    <vehicle id="E_S_73" type="standard_car" route="E_S" depart="1287" departLane="random" departSpeed="10" />
    <vehicle id="S_N_74" type="standard_car" route="S_N" depart="1305" departLane="random" departSpeed="10" />
    <vehicle id="N_S_75" type="standard_car" route="N_S" depart="1314" departLane="random" departSpeed="10" />
    <vehicle id="N_S_76" type="standard_car" route="N_S" depart="1325" departLane="random" departSpeed="10" />
    <vehicle id="S_N_77" type="standard_car" route="S_N" depart="1340" departLane="random" departSpeed="10" />
    <vehicle id="emergency_1" type="emergency" route="W_E" depart="1356" departLane="random" departSpeed="10" />
    <vehicle id="E_W_78" type="standard_car" route="E_W" depart="1365" departLane="random" departSpeed="10" />
    <vehicle id="E_W_79" type="standard_car" route="E_W" depart="1381" departLane="random" departSpeed="10" />
    <vehicle id="E_W_80" type="standard_car" route="E_W" depart="1390" departLane="random" departSpeed="10" />
    <vehicle id="N_W_81" type="standard_car" route="N_W" depart="1400" departLane="random" departSpeed="10" />
    <vehicle id="N_S_82" type="standard_car" route="N_S" depart="1456" departLane="random" departSpeed="10" />
    <vehicle id="E_W_83" type="standard_car" route="E_W" depart="1462" departLane="random" departSpeed="10" />
    <vehicle id="S_N_84" type="standard_car" route="S_N" depart="1463" departLane="random" departSpeed="10" />
    <vehicle id="S_N_85" type="standard_car" route="S_N" depart="1467" departLane="random" departSpeed="10" />
    <vehicle id="S_E_86" type="standard_car" route="S_E" depart="1472" departLane="random" departSpeed="10" />
    <vehicle id="N_S_87" type="standard_car" route="N_S" depart="1483" departLane="random" departSpeed="10" />
    <vehicle id="E_W_88" type="standard_car" route="E_W" depart="1484" departLane="random" departSpeed="10" />
    <vehicle id="W_E_89" type="standard_car" route="W_E" depart="1484" departLane="random" departSpeed="10" />
    <vehicle id="S_N_90" type="standard_car" route="S_N" depart="1495" departLane="random" departSpeed="10" />
    <vehicle id="W_E_91" type="standard_car" route="W_E" depart="1502" departLane="random" departSpeed="10" />
    <vehicle id="E_W_92" type="standard_car" route="E_W" depart="1508" departLane="random" departSpeed="10" />
    <vehicle id="N_S_93" type="standard_car" route="N_S" depart="1523" departLane="random" departSpeed="10" />
    <vehicle id="S_N_94" type="standard_car" route="S_N" depart="1531" departLane="random" departSpeed="10" />
    <vehicle id="W_E_95" type="standard_car" route="W_E" depart="1533" departLane="random" departSpeed="10" />
    <vehicle id="E_W_96" type="standard_car" route="E_W" depart="1543" departLane="random" departSpeed="10" />
    <vehicle id="S_W_97" type="standard_car" route="S_W" depart="1544" departLane="random" departSpeed="10" />
    <vehicle id="W_E_98" type="standard_car" route="W_E" depart="1564" departLane="random" departSpeed="10" />
    <vehicle id="E_W_99" type="standard_car" route="E_W" depart="1565" departLane="random" departSpeed="10" />
    <vehicle id="S_E_100" type="standard_car" route="S_E" depart="1581" departLane="random" departSpeed="10" />
    <vehicle id="W_S_101" type="standard_car" route="W_S" depart="1586" departLane="random" departSpeed="10" />
    <vehicle id="S_N_102" type="standard_car" route="S_N" depart="1588" departLane="random" departSpeed="10" />
    <vehicle id="N_S_103" type="standard_car" route="N_S" depart="1597" departLane="random" departSpeed="10" />
    <vehicle id="W_E_104" type="standard_car" route="W_E" depart="1612" departLane="random" departSpeed="10" />
    <vehicle id="S_N_105" type="standard_car" route="S_N" depart="1634" departLane="random" departSpeed="10" />
    <vehicle id="S_N_106" type="standard_car" route="S_N" depart="1649" departLane="random" departSpeed="10" />
    <vehicle id="E_W_107" type="standard_car" route="E_W" depart="1650" departLane="random" departSpeed="10" />
    <vehicle id="E_W_108" type="standard_car" route="E_W" depart="1653" departLane="random" departSpeed="10" />
    <vehicle id="E_W_109" type="standard_car" route="E_W" depart="1662" departLane="random" departSpeed="10" />
    <vehicle id="N_S_110" type="standard_car" route="N_S" depart="1666" departLane="random" departSpeed="10" />
    <vehicle id="S_N_111" type="standard_car" route="S_N" depart="1675" departLane="random" departSpeed="10" />
    <vehicle id="S_N_112" type="standard_car" route="S_N" depart="1678" departLane="random" departSpeed="10" />
    <vehicle id="S_N_113" type="standard_car" route="S_N" depart="1684" departLane="random" departSpeed="10" />
    <vehicle id="W_E_114" type="standard_car" route="W_E" depart="1689" departLane="random" departSpeed="10" />
    <vehicle id="S_N_115" type="standard_car" route="S_N" depart="1690" departLane="random" departSpeed="10" />
    <vehicle id="E_N_116" type="standard_car" route="E_N" depart="1700" departLane="random" departSpeed="10" />
    <vehicle id="N_E_117" type="standard_car" route="N_E" depart="1706" departLane="random" departSpeed="10" />
    <vehicle id="W_E_118" type="standard_car" route="W_E" depart="1717" departLane="random" departSpeed="10" />
    <vehicle id="E_W_119" type="standard_car" route="E_W" depart="1724" departLane="random" departSpeed="10" />
    <vehicle id="E_W_120" type="standard_car" route="E_W" depart="1724" departLane="random" departSpeed="10" />
    <vehicle id="W_E_121" type="standard_car" route="W_E" depart="1813" departLane="random" departSpeed="10" />
    <vehicle id="N_E_122" type="standard_car" route="N_E" depart="1822" departLane="random" departSpeed="10" />
    <vehicle id="W_E_123" type="standard_car" route="W_E" depart="1829" departLane="random" departSpeed="10" />
    <vehicle id="W_N_124" type="standard_car" route="W_N" depart="1845" departLane="random" departSpeed="10" />
    <vehicle id="W_E_125" type="standard_car" route="W_E" depart="1850" departLane="random" departSpeed="10" />
    <vehicle id="N_S_126" type="standard_car" route="N_S" depart="1860" departLane="random" departSpeed="10" />
    <vehicle id="S_E_127" type="standard_car" route="S_E" depart="1868" departLane="random" departSpeed="10" />
    <vehicle id="S_N_128" type="standard_car" route="S_N" depart="1872" departLane="random" departSpeed="10" />
    <vehicle id="N_S_129" type="standard_car" route="N_S" depart="1910" departLane="random" departSpeed="10" />
    <vehicle id="E_W_130" type="standard_car" route="E_W" depart="1913" departLane="random" departSpeed="10" />
    <vehicle id="N_E_131" type="standard_car" route="N_E" depart="1913" departLane="random" departSpeed="10" />
    <vehicle id="W_E_132" type="standard_car" route="W_E" depart="1941" departLane="random" departSpeed="10" />
    <vehicle id="W_E_133" type="standard_car" route="W_E" depart="1956" departLane="random" departSpeed="10" />
    <vehicle id="N_S_134" type="standard_car" route="N_S" depart="1962" departLane="random" departSpeed="10" />
    <vehicle id="S_N_135" type="standard_car" route="S_N" depart="2006" departLane="random" departSpeed="10" />
    <vehicle id="E_W_136" type="standard_car" route="E_W" depart="2011" departLane="random" departSpeed="10" />
    <vehicle id="S_N_137" type="standard_car" route="S_N" depart="2015" departLane="random" departSpeed="10" />
    <vehicle id="N_S_138" type="standard_car" route="N_S" depart="2019" departLane="random" departSpeed="10" />
    <vehicle id="E_W_139" type="standard_car" route="E_W" depart="2025" departLane="random" departSpeed="10" />
    <vehicle id="S_W_140" type="standard_car" route="S_W" depart="2026" departLane="random" departSpeed="10" />
    <vehicle id="N_S_141" type="standard_car" route="N_S" depart="2027" departLane="random" departSpeed="10" />
    <vehicle id="S_E_142" type="standard_car" route="S_E" depart="2034" departLane="random" departSpeed="10" />
    <vehicle id="W_E_143" type="standard_car" route="W_E" depart="2052" departLane="random" departSpeed="10" />
    <vehicle id="E_W_144" type="standard_car" route="E_W" depart="2066" departLane="random" departSpeed="10" />
    <vehicle id="N_W_145" type="standard_car" route="N_W" depart="2100" departLane="random" departSpeed="10" />
    <vehicle id="S_N_146" type="standard_car" route="S_N" depart="2104" departLane="random" departSpeed="10" />
    <vehicle id="E_W_147" type="standard_car" route="E_W" depart="2120" departLane="random" departSpeed="10" />
    <vehicle id="E_W_148" type="standard_car" route="E_W" depart="2176" departLane="random" departSpeed="10" />
    <vehicle id="S_E_149" type="standard_car" route="S_E" depart="2205" departLane="random" departSpeed="10" />
    <vehicle id="E_W_150" type="standard_car" route="E_W" depart="2222" departLane="random" departSpeed="10" />
    <vehicle id="N_W_151" type="standard_car" route="N_W" depart="2225" departLane="random" departSpeed="10" />
    <vehicle id="S_N_152" type="standard_car" route="S_N" depart="2232" departLane="random" departSpeed="10" />
    <vehicle id="W_E_153" type="standard_car" route="W_E" depart="2238" departLane="random" departSpeed="10" />
    <vehicle id="N_W_154" type="standard_car" route="N_W" depart="2244" departLane="random" departSpeed="10" />
    <vehicle id="W_E_155" type="standard_car" route="W_E" depart="2255" departLane="random" departSpeed="10" />
    <vehicle id="W_E_156" type="standard_car" route="W_E" depart="2264" departLane="random" departSpeed="10" />
    <vehicle id="N_S_157" type="standard_car" route="N_S" depart="2268" departLane="random" departSpeed="10" />
    <vehicle id="W_E_158" type="standard_car" route="W_E" depart="2274" departLane="random" departSpeed="10" />
    <vehicle id="E_W_159" type="standard_car" route="E_W" depart="2335" departLane="random" departSpeed="10" />
    <vehicle id="E_S_160" type="standard_car" route="E_S" depart="2371" departLane="random" departSpeed="10" />
    <vehicle id="W_E_161" type="standard_car" route="W_E" depart="2393" departLane="random" departSpeed="10" />
    <vehicle id="N_S_162" type="standard_car" route="N_S" depart="2394" departLane="random" departSpeed="10" />
    <vehicle id="E_W_163" type="standard_car" route="E_W" depart="2402" departLane="random" departSpeed="10" />
    <vehicle id="S_N_164" type="standard_car" route="S_N" depart="2408" departLane="random" departSpeed="10" />
    <vehicle id="W_N_165" type="standard_car" route="W_N" depart="2428" departLane="random" departSpeed="10" />
    <vehicle id="S_N_166" type="standard_car" route="S_N" depart="2453" departLane="random" departSpeed="10" />
    <vehicle id="E_W_167" type="standard_car" route="E_W" depart="2464" departLane="random" departSpeed="10" />
    <vehicle id="W_E_168" type="standard_car" route="W_E" depart="2517" departLane="random" departSpeed="10" />
    <vehicle id="W_S_169" type="standard_car" route="W_S" depart="2518" departLane="random" departSpeed="10" />
    <vehicle id="E_N_170" type="standard_car" route="E_N" depart="2519" departLane="random" departSpeed="10" />
    <vehicle id="E_S_171" type="standard_car" route="E_S" depart="2543" departLane="random" departSpeed="10" />
    <vehicle id="S_N_172" type="standard_car" route="S_N" depart="2576" departLane="random" departSpeed="10" />
    <vehicle id="W_E_173" type="standard_car" route="W_E" depart="2581" departLane="random" departSpeed="10" />
    <vehicle id="S_N_174" type="standard_car" route="S_N" depart="2594" departLane="random" departSpeed="10" />
    <vehicle id="W_E_175" type="standard_car" route="W_E" depart="2607" departLane="random" departSpeed="10" />
    <vehicle id="N_S_176" type="standard_car" route="N_S" depart="2612" departLane="random" departSpeed="10" />
    <vehicle id="S_W_177" type="standard_car" route="S_W" depart="2641" departLane="random" departSpeed="10" />
    <vehicle id="N_S_178" type="standard_car" route="N_S" depart="2662" departLane="random" departSpeed="10" />
    <vehicle id="W_N_179" type="standard_car" route="W_N" depart="2663" departLane="random" departSpeed="10" />
    <vehicle id="W_E_180" type="standard_car" route="W_E" depart="2664" departLane="random" departSpeed="10" />
    <vehicle id="E_W_181" type="standard_car" route="E_W" depart="2715" departLane="random" departSpeed="10" />
    <vehicle id="W_E_182" type="standard_car" route="W_E" depart="2815" departLane="random" departSpeed="10" />
    <vehicle id="E_W_183" type="standard_car" route="E_W" depart="2834" departLane="random" departSpeed="10" />
    <vehicle id="W_E_184" type="standard_car" route="W_E" depart="2874" departLane="random" departSpeed="10" />
    <vehicle id="N_E_185" type="standard_car" route="N_E" depart="2928" departLane="random" departSpeed="10" />
    <vehicle id="E_S_186" type="standard_car" route="E_S" depart="2982" departLane="random" departSpeed="10" />
    <vehicle id="S_N_187" type="standard_car" route="S_N" depart="3072" departLane="random" departSpeed="10" />
    <vehicle id="E_N_188" type="standard_car" route="E_N" depart="3079" departLane="random" departSpeed="10" />
    <vehicle id="S_N_189" type="standard_car" route="S_N" depart="3094" departLane="random" departSpeed="10" />
    <vehicle id="S_N_190" type="standard_car" route="S_N" depart="3151" departLane="random" departSpeed="10" />
    <vehicle id="E_W_191" type="standard_car" route="E_W" depart="3162" departLane="random" departSpeed="10" />
    <vehicle id="N_S_192" type="standard_car" route="N_S" depart="3183" departLane="random" departSpeed="10" />
    <vehicle id="S_N_193" type="standard_car" route="S_N" depart="3234" departLane="random" departSpeed="10" />
    <vehicle id="W_S_194" type="standard_car" route="W_S" depart="3239" departLane="random" departSpeed="10" />
    <vehicle id="S_N_195" type="standard_car" route="S_N" depart="3319" departLane="random" departSpeed="10" />
    <vehicle id="N_E_196" type="standard_car" route="N_E" depart="3671" departLane="random" departSpeed="10" />
    <vehicle id="S_E_197" type="standard_car" route="S_E" depart="3745" departLane="random" departSpeed="10" />
    <vehicle id="S_N_198" type="standard_car" route="S_N" depart="3745" departLane="random" departSpeed="10" />
    <vehicle id="N_E_199" type="standard_car" route="N_E" depart="3786" departLane="random" departSpeed="10" />
    <vehicle id="emergency_2" type="emergency" route="E_N" depart="4416" departLane="random" departSpeed="10" />
</routes>
