<routes>
    <!-- Define vehicle types -->
    <vType id="emergency" accel="3.0" decel="6.0" color="1,0,0" maxSpeed="20" sigma="0.5" emergency="true" />
    <vType id="standard_car" accel="1.0" decel="4.5" length="5.0" minGap="2.5" maxSpeed="25" sigma="0.5" />
    
    <!-- Short routes, one arc of the roundabout -->
    <route id="route1" edges="e1 r1 e2_out"/>
    <route id="route2" edges="e2 r2 e3_out"/>
    <route id="route3" edges="e3 r3 e4_out"/>
    <route id="route4" edges="e4 r4 e1_out"/>

    <!-- Longer routes, two arcs of the roundabout -->
    <route id="route5" edges="e1 r1 r2 e3_out"/>
    <route id="route6" edges="e2 r2 r3 e4_out"/>
    <route id="route7" edges="e3 r3 r4 e1_out"/>
    <route id="route8" edges="e4 r4 r1 e2_out"/>
</routes>
    <vehicle id="roundabout_0" type="standard_car" route="route3" depart="123" departLane="random" departSpeed="10" />
    <vehicle id="roundabout_1" type="standard_car" route="route8" depart="195" departLane="random" departSpeed="10" />
    <vehicle id="roundabout_2" type="standard_car" route="route2" depart="246" departLane="random" departSpeed="10" />
    <vehicle id="roundabout_3" type="standard_car" route="route6" depart="248" departLane="random" departSpeed="10" />
    <vehicle id="roundabout_4" type="standard_car" route="route1" depart="251" departLane="random" departSpeed="10" />
    <vehicle id="roundabout_5" type="standard_car" route="route1" depart="257" departLane="random" departSpeed="10" />
    <vehicle id="roundabout_6" type="standard_car" route="route6" depart="257" departLane="random" departSpeed="10" />
    <vehicle id="roundabout_7" type="standard_car" route="route3" depart="324" departLane="random" departSpeed="10" />
    <vehicle id="roundabout_8" type="standard_car" route="route3" depart="360" departLane="random" departSpeed="10" />
    <vehicle id="roundabout_9" type="standard_car" route="route1" depart="425" departLane="random" departSpeed="10" />
    <vehicle id="roundabout_10" type="standard_car" route="route4" depart="440" departLane="random" departSpeed="10" />
    <vehicle id="roundabout_11" type="standard_car" route="route5" depart="449" departLane="random" departSpeed="10" />
    <vehicle id="roundabout_12" type="standard_car" route="route4" depart="463" departLane="random" departSpeed="10" />
    <vehicle id="roundabout_13" type="standard_car" route="route1" depart="482" departLane="random" departSpeed="10" />
    <vehicle id="roundabout_14" type="standard_car" route="route8" depart="489" departLane="random" departSpeed="10" />
    <vehicle id="roundabout_15" type="standard_car" route="route3" depart="543" departLane="random" departSpeed="10" />
    <vehicle id="roundabout_16" type="standard_car" route="route1" depart="565" departLane="random" departSpeed="10" />
    <vehicle id="roundabout_17" type="standard_car" route="route4" depart="572" departLane="random" departSpeed="10" />
    <vehicle id="roundabout_18" type="standard_car" route="route2" depart="575" departLane="random" departSpeed="10" />
    <vehicle id="roundabout_19" type="standard_car" route="route3" depart="585" departLane="random" departSpeed="10" />
    <vehicle id="roundabout_20" type="standard_car" route="route1" depart="591" departLane="random" departSpeed="10" />
    <vehicle id="roundabout_21" type="standard_car" route="route7" depart="616" departLane="random" departSpeed="10" />
    <vehicle id="roundabout_22" type="standard_car" route="route4" depart="639" departLane="random" departSpeed="10" />
    <vehicle id="roundabout_23" type="standard_car" route="route2" depart="640" departLane="random" departSpeed="10" />
    <vehicle id="roundabout_24" type="standard_car" route="route1" depart="644" departLane="random" departSpeed="10" />
    <vehicle id="roundabout_25" type="standard_car" route="route4" depart="654" departLane="random" departSpeed="10" />
    <vehicle id="roundabout_26" type="standard_car" route="route1" depart="669" departLane="random" departSpeed="10" />
    <vehicle id="roundabout_27" type="standard_car" route="route2" depart="677" departLane="random" departSpeed="10" />
    <vehicle id="roundabout_28" type="standard_car" route="route1" depart="687" departLane="random" departSpeed="10" />
    <vehicle id="roundabout_29" type="standard_car" route="route4" depart="694" departLane="random" departSpeed="10" />
    <vehicle id="roundabout_30" type="standard_car" route="route2" depart="708" departLane="random" departSpeed="10" />
    <vehicle id="roundabout_31" type="standard_car" route="route7" depart="724" departLane="random" departSpeed="10" />
    <vehicle id="roundabout_32" type="standard_car" route="route2" depart="749" departLane="random" departSpeed="10" />
    <vehicle id="roundabout_33" type="standard_car" route="route4" depart="755" departLane="random" departSpeed="10" />
    <vehicle id="roundabout_34" type="standard_car" route="route7" depart="758" departLane="random" departSpeed="10" />
    <vehicle id="roundabout_35" type="standard_car" route="route2" depart="764" departLane="random" departSpeed="10" />
    <vehicle id="roundabout_36" type="standard_car" route="route6" depart="781" departLane="random" departSpeed="10" />
    <vehicle id="roundabout_37" type="standard_car" route="route4" depart="810" departLane="random" departSpeed="10" />
    <vehicle id="roundabout_38" type="standard_car" route="route1" depart="817" departLane="random" departSpeed="10" />
    <vehicle id="roundabout_39" type="standard_car" route="route2" depart="842" departLane="random" departSpeed="10" />
    <vehicle id="roundabout_40" type="standard_car" route="route1" depart="850" departLane="random" departSpeed="10" />
    <vehicle id="roundabout_41" type="standard_car" route="route3" depart="871" departLane="random" departSpeed="10" />
    <vehicle id="roundabout_42" type="standard_car" route="route5" depart="874" departLane="random" departSpeed="10" />
    <vehicle id="roundabout_43" type="standard_car" route="route8" depart="875" departLane="random" departSpeed="10" />
    <vehicle id="roundabout_44" type="standard_car" route="route3" depart="904" departLane="random" departSpeed="10" />
    <vehicle id="roundabout_45" type="standard_car" route="route2" depart="906" departLane="random" departSpeed="10" />
    <vehicle id="roundabout_46" type="standard_car" route="route3" depart="914" departLane="random" departSpeed="10" />
    <vehicle id="roundabout_47" type="standard_car" route="route1" depart="938" departLane="random" departSpeed="10" />
    <vehicle id="roundabout_48" type="standard_car" route="route1" depart="953" departLane="random" departSpeed="10" />
    <vehicle id="roundabout_49" type="standard_car" route="route3" depart="963" departLane="random" departSpeed="10" />
    <vehicle id="roundabout_50" type="standard_car" route="route5" depart="973" departLane="random" departSpeed="10" />
    <vehicle id="roundabout_51" type="standard_car" route="route1" depart="975" departLane="random" departSpeed="10" />
    <vehicle id="roundabout_52" type="standard_car" route="route3" depart="998" departLane="random" departSpeed="10" />
    <vehicle id="roundabout_53" type="standard_car" route="route1" depart="1000" departLane="random" departSpeed="10" />
    <vehicle id="roundabout_54" type="standard_car" route="route6" depart="1010" departLane="random" departSpeed="10" />
    <vehicle id="roundabout_55" type="standard_car" route="route2" depart="1038" departLane="random" departSpeed="10" />
    <vehicle id="roundabout_56" type="standard_car" route="route2" depart="1052" departLane="random" departSpeed="10" />
    <vehicle id="roundabout_57" type="standard_car" route="route3" depart="1054" departLane="random" departSpeed="10" />
    <vehicle id="roundabout_58" type="standard_car" route="route2" depart="1067" departLane="random" departSpeed="10" />
    <vehicle id="roundabout_59" type="standard_car" route="route3" depart="1069" departLane="random" departSpeed="10" />
    <vehicle id="roundabout_60" type="standard_car" route="route1" depart="1071" departLane="random" departSpeed="10" />
    <vehicle id="roundabout_61" type="standard_car" route="route1" depart="1078" departLane="random" departSpeed="10" />
    <vehicle id="roundabout_62" type="standard_car" route="route4" depart="1101" departLane="random" departSpeed="10" />
    <vehicle id="roundabout_63" type="standard_car" route="route2" depart="1108" departLane="random" departSpeed="10" />
    <vehicle id="roundabout_64" type="standard_car" route="route1" depart="1114" departLane="random" departSpeed="10" />
    <vehicle id="roundabout_65" type="standard_car" route="route4" depart="1115" departLane="random" departSpeed="10" />
    <vehicle id="roundabout_66" type="standard_car" route="route5" depart="1172" departLane="random" departSpeed="10" />
    <vehicle id="roundabout_67" type="standard_car" route="route4" depart="1201" departLane="random" departSpeed="10" />
    <vehicle id="roundabout_68" type="standard_car" route="route1" depart="1202" departLane="random" departSpeed="10" />
    <vehicle id="roundabout_69" type="standard_car" route="route1" depart="1210" departLane="random" departSpeed="10" />
    <vehicle id="roundabout_70" type="standard_car" route="route4" depart="1218" departLane="random" departSpeed="10" />
    <vehicle id="roundabout_71" type="standard_car" route="route3" depart="1221" departLane="random" departSpeed="10" />
    <vehicle id="roundabout_72" type="standard_car" route="route3" depart="1252" departLane="random" departSpeed="10" />
    <vehicle id="roundabout_73" type="standard_car" route="route4" depart="1279" departLane="random" departSpeed="10" />
    <vehicle id="roundabout_74" type="standard_car" route="route3" depart="1283" departLane="random" departSpeed="10" />
    <vehicle id="roundabout_75" type="standard_car" route="route1" depart="1302" departLane="random" departSpeed="10" />
    <vehicle id="roundabout_76" type="standard_car" route="route3" depart="1316" departLane="random" departSpeed="10" />
    <vehicle id="roundabout_77" type="standard_car" route="route2" depart="1317" departLane="random" departSpeed="10" />
    <vehicle id="roundabout_78" type="standard_car" route="route3" depart="1336" departLane="random" departSpeed="10" />
    <vehicle id="roundabout_79" type="standard_car" route="route1" depart="1337" departLane="random" departSpeed="10" />
    <vehicle id="roundabout_80" type="standard_car" route="route1" depart="1347" departLane="random" departSpeed="10" />
    <vehicle id="roundabout_81" type="standard_car" route="route1" depart="1353" departLane="random" departSpeed="10" />
    <vehicle id="roundabout_82" type="standard_car" route="route2" depart="1359" departLane="random" departSpeed="10" />
    <vehicle id="roundabout_83" type="standard_car" route="route2" depart="1362" departLane="random" departSpeed="10" />
    <vehicle id="roundabout_84" type="standard_car" route="route3" depart="1364" departLane="random" departSpeed="10" />
    <vehicle id="roundabout_85" type="standard_car" route="route5" depart="1366" departLane="random" departSpeed="10" />
    <vehicle id="roundabout_86" type="standard_car" route="route2" depart="1368" departLane="random" departSpeed="10" />
    <vehicle id="roundabout_87" type="standard_car" route="route4" depart="1386" departLane="random" departSpeed="10" />
    <vehicle id="roundabout_88" type="standard_car" route="route4" depart="1399" departLane="random" departSpeed="10" />
    <vehicle id="roundabout_89" type="standard_car" route="route1" depart="1405" departLane="random" departSpeed="10" />
    <vehicle id="roundabout_90" type="standard_car" route="route4" depart="1416" departLane="random" departSpeed="10" />
    <vehicle id="roundabout_91" type="standard_car" route="route4" depart="1426" departLane="random" departSpeed="10" />
    <vehicle id="roundabout_92" type="standard_car" route="route2" depart="1431" departLane="random" departSpeed="10" />
    <vehicle id="roundabout_93" type="standard_car" route="route8" depart="1478" departLane="random" departSpeed="10" />
    <vehicle id="roundabout_94" type="standard_car" route="route1" depart="1501" departLane="random" departSpeed="10" />
    <vehicle id="roundabout_95" type="standard_car" route="route6" depart="1544" departLane="random" departSpeed="10" />
    <vehicle id="roundabout_96" type="standard_car" route="route3" depart="1546" departLane="random" departSpeed="10" />
    <vehicle id="roundabout_97" type="standard_car" route="route1" depart="1549" departLane="random" departSpeed="10" />
    <vehicle id="roundabout_98" type="standard_car" route="route3" depart="1562" departLane="random" departSpeed="10" />
    <vehicle id="roundabout_99" type="standard_car" route="route3" depart="1576" departLane="random" departSpeed="10" />
    <vehicle id="roundabout_100" type="standard_car" route="route4" depart="1597" departLane="random" departSpeed="10" />
    <vehicle id="roundabout_101" type="standard_car" route="route2" depart="1606" departLane="random" departSpeed="10" />
    <vehicle id="roundabout_102" type="standard_car" route="route2" depart="1646" departLane="random" departSpeed="10" />
    <vehicle id="roundabout_103" type="standard_car" route="route2" depart="1649" departLane="random" departSpeed="10" />
    <vehicle id="roundabout_104" type="standard_car" route="route1" depart="1650" departLane="random" departSpeed="10" />
    <vehicle id="roundabout_105" type="standard_car" route="route4" depart="1652" departLane="random" departSpeed="10" />
    <vehicle id="roundabout_106" type="standard_car" route="route6" depart="1654" departLane="random" departSpeed="10" />
    <vehicle id="roundabout_107" type="standard_car" route="route2" depart="1654" departLane="random" departSpeed="10" />
    <vehicle id="roundabout_108" type="standard_car" route="route3" depart="1659" departLane="random" departSpeed="10" />
    <vehicle id="roundabout_109" type="standard_car" route="route7" depart="1663" departLane="random" departSpeed="10" />
    <vehicle id="roundabout_110" type="standard_car" route="route3" depart="1667" departLane="random" departSpeed="10" />
    <vehicle id="roundabout_111" type="standard_car" route="route7" depart="1668" departLane="random" departSpeed="10" />
    <vehicle id="roundabout_112" type="standard_car" route="route8" depart="1670" departLane="random" departSpeed="10" />
    <vehicle id="emergency_0" type="emergency" route="N_W" depart="1676" departLane="random" departSpeed="10" />
    <vehicle id="roundabout_113" type="standard_car" route="route4" depart="1679" departLane="random" departSpeed="10" />
    <vehicle id="roundabout_114" type="standard_car" route="route1" depart="1692" departLane="random" departSpeed="10" />
    <vehicle id="roundabout_115" type="standard_car" route="route4" depart="1699" departLane="random" departSpeed="10" />
    <vehicle id="roundabout_116" type="standard_car" route="route1" depart="1702" departLane="random" departSpeed="10" />
    <vehicle id="roundabout_117" type="standard_car" route="route2" depart="1704" departLane="random" departSpeed="10" />
    <vehicle id="roundabout_118" type="standard_car" route="route7" depart="1730" departLane="random" departSpeed="10" />
    <vehicle id="roundabout_119" type="standard_car" route="route3" depart="1734" departLane="random" departSpeed="10" />
    <vehicle id="roundabout_120" type="standard_car" route="route7" depart="1738" departLane="random" departSpeed="10" />
    <vehicle id="roundabout_121" type="standard_car" route="route3" depart="1752" departLane="random" departSpeed="10" />
    <vehicle id="roundabout_122" type="standard_car" route="route2" depart="1756" departLane="random" departSpeed="10" />
    <vehicle id="roundabout_123" type="standard_car" route="route3" depart="1760" departLane="random" departSpeed="10" />
    <vehicle id="roundabout_124" type="standard_car" route="route6" depart="1763" departLane="random" departSpeed="10" />
    <vehicle id="roundabout_125" type="standard_car" route="route1" depart="1765" departLane="random" departSpeed="10" />
    <vehicle id="roundabout_126" type="standard_car" route="route3" depart="1766" departLane="random" departSpeed="10" />
    <vehicle id="roundabout_127" type="standard_car" route="route6" depart="1774" departLane="random" departSpeed="10" />
    <vehicle id="roundabout_128" type="standard_car" route="route1" depart="1819" departLane="random" departSpeed="10" />
    <vehicle id="roundabout_129" type="standard_car" route="route1" depart="1829" departLane="random" departSpeed="10" />
    <vehicle id="roundabout_130" type="standard_car" route="route8" depart="1834" departLane="random" departSpeed="10" />
    <vehicle id="roundabout_131" type="standard_car" route="route1" depart="1850" departLane="random" departSpeed="10" />
    <vehicle id="roundabout_132" type="standard_car" route="route1" depart="1852" departLane="random" departSpeed="10" />
    <vehicle id="roundabout_133" type="standard_car" route="route5" depart="1852" departLane="random" departSpeed="10" />
    <vehicle id="roundabout_134" type="standard_car" route="route7" depart="1860" departLane="random" departSpeed="10" />
    <vehicle id="roundabout_135" type="standard_car" route="route1" depart="1870" departLane="random" departSpeed="10" />
    <vehicle id="roundabout_136" type="standard_car" route="route8" depart="1887" departLane="random" departSpeed="10" />
    <vehicle id="roundabout_137" type="standard_car" route="route3" depart="1889" departLane="random" departSpeed="10" />
    <vehicle id="roundabout_138" type="standard_car" route="route1" depart="1897" departLane="random" departSpeed="10" />
    <vehicle id="roundabout_139" type="standard_car" route="route7" depart="1916" departLane="random" departSpeed="10" />
    <vehicle id="roundabout_140" type="standard_car" route="route3" depart="1926" departLane="random" departSpeed="10" />
    <vehicle id="roundabout_141" type="standard_car" route="route2" depart="1955" departLane="random" departSpeed="10" />
    <vehicle id="roundabout_142" type="standard_car" route="route1" depart="1955" departLane="random" departSpeed="10" />
    <vehicle id="roundabout_143" type="standard_car" route="route2" depart="1968" departLane="random" departSpeed="10" />
    <vehicle id="roundabout_144" type="standard_car" route="route2" depart="1969" departLane="random" departSpeed="10" />
    <vehicle id="roundabout_145" type="standard_car" route="route4" depart="1974" departLane="random" departSpeed="10" />
    <vehicle id="roundabout_146" type="standard_car" route="route3" depart="1986" departLane="random" departSpeed="10" />
    <vehicle id="roundabout_147" type="standard_car" route="route2" depart="1987" departLane="random" departSpeed="10" />
    <vehicle id="emergency_1" type="emergency" route="N_W" depart="2014" departLane="random" departSpeed="10" />
    <vehicle id="roundabout_148" type="standard_car" route="route1" depart="2015" departLane="random" departSpeed="10" />
    <vehicle id="roundabout_149" type="standard_car" route="route8" depart="2017" departLane="random" departSpeed="10" />
    <vehicle id="roundabout_150" type="standard_car" route="route2" depart="2020" departLane="random" departSpeed="10" />
    <vehicle id="roundabout_151" type="standard_car" route="route1" depart="2037" departLane="random" departSpeed="10" />
    <vehicle id="roundabout_152" type="standard_car" route="route4" depart="2046" departLane="random" departSpeed="10" />
    <vehicle id="roundabout_153" type="standard_car" route="route3" depart="2060" departLane="random" departSpeed="10" />
    <vehicle id="roundabout_154" type="standard_car" route="route2" depart="2060" departLane="random" departSpeed="10" />
    <vehicle id="roundabout_155" type="standard_car" route="route4" depart="2075" departLane="random" departSpeed="10" />
    <vehicle id="roundabout_156" type="standard_car" route="route3" depart="2087" departLane="random" departSpeed="10" />
    <vehicle id="roundabout_157" type="standard_car" route="route4" depart="2088" departLane="random" departSpeed="10" />
    <vehicle id="roundabout_158" type="standard_car" route="route2" depart="2196" departLane="random" departSpeed="10" />
    <vehicle id="roundabout_159" type="standard_car" route="route2" depart="2209" departLane="random" departSpeed="10" />
    <vehicle id="roundabout_160" type="standard_car" route="route2" depart="2217" departLane="random" departSpeed="10" />
    <vehicle id="roundabout_161" type="standard_car" route="route3" depart="2255" departLane="random" departSpeed="10" />
    <vehicle id="roundabout_162" type="standard_car" route="route2" depart="2261" departLane="random" departSpeed="10" />
    <vehicle id="roundabout_163" type="standard_car" route="route3" depart="2281" departLane="random" departSpeed="10" />
    <vehicle id="roundabout_164" type="standard_car" route="route5" depart="2306" departLane="random" departSpeed="10" />
    <vehicle id="roundabout_165" type="standard_car" route="route2" depart="2310" departLane="random" departSpeed="10" />
    <vehicle id="roundabout_166" type="standard_car" route="route8" depart="2334" departLane="random" departSpeed="10" />
    <vehicle id="roundabout_167" type="standard_car" route="route3" depart="2361" departLane="random" departSpeed="10" />
    <vehicle id="roundabout_168" type="standard_car" route="route4" depart="2392" departLane="random" departSpeed="10" />
    <vehicle id="roundabout_169" type="standard_car" route="route2" depart="2407" departLane="random" departSpeed="10" />
    <vehicle id="roundabout_170" type="standard_car" route="route3" depart="2428" departLane="random" departSpeed="10" />
    <vehicle id="roundabout_171" type="standard_car" route="route3" depart="2464" departLane="random" departSpeed="10" />
    <vehicle id="roundabout_172" type="standard_car" route="route1" depart="2471" departLane="random" departSpeed="10" />
    <vehicle id="roundabout_173" type="standard_car" route="route3" depart="2505" departLane="random" departSpeed="10" />
    <vehicle id="roundabout_174" type="standard_car" route="route2" depart="2554" departLane="random" departSpeed="10" />
    <vehicle id="roundabout_175" type="standard_car" route="route1" depart="2562" departLane="random" departSpeed="10" />
    <vehicle id="roundabout_176" type="standard_car" route="route3" depart="2571" departLane="random" departSpeed="10" />
    <vehicle id="roundabout_177" type="standard_car" route="route4" depart="2627" departLane="random" departSpeed="10" />
    <vehicle id="roundabout_178" type="standard_car" route="route2" depart="2630" departLane="random" departSpeed="10" />
    <vehicle id="roundabout_179" type="standard_car" route="route1" depart="2684" departLane="random" departSpeed="10" />
    <vehicle id="roundabout_180" type="standard_car" route="route4" depart="2685" departLane="random" departSpeed="10" />
    <vehicle id="roundabout_181" type="standard_car" route="route3" depart="2711" departLane="random" departSpeed="10" />
    <vehicle id="emergency_2" type="emergency" route="E_W" depart="2835" departLane="random" departSpeed="10" />
    <vehicle id="roundabout_182" type="standard_car" route="route6" depart="2857" departLane="random" departSpeed="10" />
    <vehicle id="roundabout_183" type="standard_car" route="route1" depart="2901" departLane="random" departSpeed="10" />
    <vehicle id="roundabout_184" type="standard_car" route="route4" depart="2920" departLane="random" departSpeed="10" />
    <vehicle id="roundabout_185" type="standard_car" route="route3" depart="2930" departLane="random" departSpeed="10" />
    <vehicle id="roundabout_186" type="standard_car" route="route3" depart="2969" departLane="random" departSpeed="10" />
    <vehicle id="roundabout_187" type="standard_car" route="route1" depart="3054" departLane="random" departSpeed="10" />
    <vehicle id="roundabout_188" type="standard_car" route="route2" depart="3060" departLane="random" departSpeed="10" />
    <vehicle id="roundabout_189" type="standard_car" route="route1" depart="3062" departLane="random" departSpeed="10" />
    <vehicle id="roundabout_190" type="standard_car" route="route1" depart="3145" departLane="random" departSpeed="10" />
    <vehicle id="roundabout_191" type="standard_car" route="route7" depart="3182" departLane="random" departSpeed="10" />
    <vehicle id="roundabout_192" type="standard_car" route="route7" depart="3258" departLane="random" departSpeed="10" />
    <vehicle id="roundabout_193" type="standard_car" route="route6" depart="3277" departLane="random" departSpeed="10" />
    <vehicle id="roundabout_194" type="standard_car" route="route1" depart="3467" departLane="random" departSpeed="10" />
    <vehicle id="roundabout_195" type="standard_car" route="route3" depart="3485" departLane="random" departSpeed="10" />
    <vehicle id="roundabout_196" type="standard_car" route="route3" depart="3491" departLane="random" departSpeed="10" />
    <vehicle id="roundabout_197" type="standard_car" route="route1" depart="3530" departLane="random" departSpeed="10" />
    <vehicle id="roundabout_198" type="standard_car" route="route1" depart="3799" departLane="random" departSpeed="10" />
    <vehicle id="roundabout_199" type="standard_car" route="route5" depart="4682" departLane="random" departSpeed="10" />
</routes>
