<routes>
    <!-- Define emergency vehicle type -->
    <vType id="emergency" accel="3.0" decel="6.0" color="1,0,0"
           maxSpeed="20" sigma="0.5" emergency="true" />
    <!-- Define standard vehicle type -->
    <vType id="standard_car" accel="1.0" decel="4.5" length="5.0"
           minGap="2.5" maxSpeed="25" sigma="0.5" />

    <route id="route1" edges="e1 r1 e2_out"/>
    <route id="route2" edges="e2 r2 e3_out"/>
    <route id="route3" edges="e3 r3 e4_out"/>
    <route id="route4" edges="e4 r4 e1_out"/>
    <route id="route5" edges="e1 r1 r2 e3_out"/>
    <route id="route6" edges="e2 r2 r3 e4_out"/>
    <route id="route7" edges="e3 r3 r4 e1_out"/>
    <route id="route8" edges="e4 r4 r1 e2_out"/>
    <vehicle id="roundabout_0" type="standard_car" route="route6" depart="39" departLane="random" departSpeed="10" />
    <vehicle id="roundabout_1" type="standard_car" route="route4" depart="45" departLane="random" departSpeed="10" />
    <vehicle id="roundabout_2" type="standard_car" route="route2" depart="80" departLane="random" departSpeed="10" />
    <vehicle id="roundabout_3" type="standard_car" route="route2" depart="102" departLane="random" departSpeed="10" />
    <vehicle id="roundabout_4" type="standard_car" route="route8" depart="107" departLane="random" departSpeed="10" />
    <vehicle id="roundabout_5" type="standard_car" route="route4" depart="115" departLane="random" departSpeed="10" />
    <vehicle id="roundabout_6" type="standard_car" route="route2" depart="129" departLane="random" departSpeed="10" />
    <vehicle id="roundabout_7" type="standard_car" route="route3" depart="131" departLane="random" departSpeed="10" />
    <vehicle id="roundabout_8" type="standard_car" route="route1" depart="140" departLane="random" departSpeed="10" />
    <vehicle id="roundabout_9" type="standard_car" route="route4" depart="140" departLane="random" departSpeed="10" />
    <vehicle id="roundabout_10" type="standard_car" route="route1" depart="147" departLane="random" departSpeed="10" />
    <vehicle id="roundabout_11" type="standard_car" route="route2" depart="182" departLane="random" departSpeed="10" />
    <vehicle id="roundabout_12" type="standard_car" route="route4" depart="186" departLane="random" departSpeed="10" />
    <vehicle id="roundabout_13" type="standard_car" route="route3" depart="190" departLane="random" departSpeed="10" />
    <vehicle id="roundabout_14" type="standard_car" route="route3" depart="196" departLane="random" departSpeed="10" />
    <vehicle id="roundabout_15" type="standard_car" route="route4" depart="220" departLane="random" departSpeed="10" />
    <vehicle id="roundabout_16" type="standard_car" route="route4" depart="226" departLane="random" departSpeed="10" />
    <vehicle id="roundabout_17" type="standard_car" route="route1" depart="229" departLane="random" departSpeed="10" />
    <vehicle id="roundabout_18" type="standard_car" route="route4" depart="233" departLane="random" departSpeed="10" />
    <vehicle id="roundabout_19" type="standard_car" route="route4" depart="240" departLane="random" departSpeed="10" />
    <vehicle id="roundabout_20" type="standard_car" route="route1" depart="241" departLane="random" departSpeed="10" />
    <vehicle id="roundabout_21" type="standard_car" route="route3" depart="242" departLane="random" departSpeed="10" />
    <vehicle id="roundabout_22" type="standard_car" route="route3" depart="255" departLane="random" departSpeed="10" />
    <vehicle id="roundabout_23" type="standard_car" route="route7" depart="260" departLane="random" departSpeed="10" />
    <vehicle id="roundabout_24" type="standard_car" route="route3" depart="268" departLane="random" departSpeed="10" />
    <vehicle id="roundabout_25" type="standard_car" route="route4" depart="274" departLane="random" departSpeed="10" />
    <vehicle id="roundabout_26" type="standard_car" route="route1" depart="278" departLane="random" departSpeed="10" />
    <vehicle id="roundabout_27" type="standard_car" route="route4" depart="279" departLane="random" departSpeed="10" />
    <vehicle id="roundabout_28" type="standard_car" route="route8" depart="285" departLane="random" departSpeed="10" />
    <vehicle id="roundabout_29" type="standard_car" route="route3" depart="285" departLane="random" departSpeed="10" />
    <vehicle id="roundabout_30" type="standard_car" route="route1" depart="288" departLane="random" departSpeed="10" />
    <vehicle id="roundabout_31" type="standard_car" route="route6" depart="294" departLane="random" departSpeed="10" />
    <vehicle id="roundabout_32" type="standard_car" route="route2" depart="296" departLane="random" departSpeed="10" />
    <vehicle id="roundabout_33" type="standard_car" route="route2" depart="300" departLane="random" departSpeed="10" />
    <vehicle id="roundabout_34" type="standard_car" route="route1" depart="304" departLane="random" departSpeed="10" />
    <vehicle id="roundabout_35" type="standard_car" route="route1" depart="314" departLane="random" departSpeed="10" />
    <vehicle id="roundabout_36" type="standard_car" route="route1" depart="317" departLane="random" departSpeed="10" />
    <vehicle id="roundabout_37" type="standard_car" route="route8" depart="317" departLane="random" departSpeed="10" />
    <vehicle id="roundabout_38" type="standard_car" route="route2" depart="319" departLane="random" departSpeed="10" />
    <vehicle id="roundabout_39" type="standard_car" route="route8" depart="327" departLane="random" departSpeed="10" />
    <vehicle id="roundabout_40" type="standard_car" route="route3" depart="328" departLane="random" departSpeed="10" />
    <vehicle id="roundabout_41" type="standard_car" route="route6" depart="329" departLane="random" departSpeed="10" />
    <vehicle id="roundabout_42" type="standard_car" route="route3" depart="335" departLane="random" departSpeed="10" />
    <vehicle id="roundabout_43" type="standard_car" route="route3" depart="336" departLane="random" departSpeed="10" />
    <vehicle id="roundabout_44" type="standard_car" route="route1" depart="341" departLane="random" departSpeed="10" />
    <vehicle id="roundabout_45" type="standard_car" route="route6" depart="342" departLane="random" departSpeed="10" />
    <vehicle id="roundabout_46" type="standard_car" route="route4" depart="344" departLane="random" departSpeed="10" />
    <vehicle id="roundabout_47" type="standard_car" route="route3" depart="349" departLane="random" departSpeed="10" />
    <vehicle id="roundabout_48" type="standard_car" route="route1" depart="349" departLane="random" departSpeed="10" />
    <vehicle id="roundabout_49" type="standard_car" route="route4" depart="362" departLane="random" departSpeed="10" />
    <vehicle id="roundabout_50" type="standard_car" route="route3" depart="362" departLane="random" departSpeed="10" />
    <vehicle id="roundabout_51" type="standard_car" route="route7" depart="363" departLane="random" departSpeed="10" />
    <vehicle id="roundabout_52" type="standard_car" route="route7" depart="367" departLane="random" departSpeed="10" />
    <vehicle id="roundabout_53" type="standard_car" route="route2" depart="368" departLane="random" departSpeed="10" />
    <vehicle id="roundabout_54" type="standard_car" route="route4" depart="375" departLane="random" departSpeed="10" />
    <vehicle id="roundabout_55" type="standard_car" route="route1" depart="380" departLane="random" departSpeed="10" />
    <vehicle id="roundabout_56" type="standard_car" route="route3" depart="380" departLane="random" departSpeed="10" />
    <vehicle id="roundabout_57" type="standard_car" route="route1" depart="390" departLane="random" departSpeed="10" />
    <vehicle id="roundabout_58" type="standard_car" route="route4" depart="391" departLane="random" departSpeed="10" />
    <vehicle id="roundabout_59" type="standard_car" route="route6" depart="404" departLane="random" departSpeed="10" />
    <vehicle id="roundabout_60" type="standard_car" route="route4" depart="409" departLane="random" departSpeed="10" />
    <vehicle id="roundabout_61" type="standard_car" route="route4" depart="415" departLane="random" departSpeed="10" />
    <vehicle id="roundabout_62" type="standard_car" route="route8" depart="417" departLane="random" departSpeed="10" />
    <vehicle id="roundabout_63" type="standard_car" route="route7" depart="419" departLane="random" departSpeed="10" />
    <vehicle id="roundabout_64" type="standard_car" route="route1" depart="422" departLane="random" departSpeed="10" />
    <vehicle id="roundabout_65" type="standard_car" route="route2" depart="427" departLane="random" departSpeed="10" />
    <vehicle id="roundabout_66" type="standard_car" route="route1" depart="429" departLane="random" departSpeed="10" />
    <vehicle id="roundabout_67" type="standard_car" route="route1" depart="430" departLane="random" departSpeed="10" />
    <vehicle id="roundabout_68" type="standard_car" route="route6" depart="432" departLane="random" departSpeed="10" />
    <vehicle id="roundabout_69" type="standard_car" route="route1" depart="439" departLane="random" departSpeed="10" />
    <vehicle id="roundabout_70" type="standard_car" route="route8" depart="440" departLane="random" departSpeed="10" />
    <vehicle id="roundabout_71" type="standard_car" route="route3" depart="444" departLane="random" departSpeed="10" />
    <vehicle id="roundabout_72" type="standard_car" route="route2" depart="447" departLane="random" departSpeed="10" />
    <vehicle id="roundabout_73" type="standard_car" route="route1" depart="453" departLane="random" departSpeed="10" />
    <vehicle id="roundabout_74" type="standard_car" route="route2" depart="455" departLane="random" departSpeed="10" />
    <vehicle id="roundabout_75" type="standard_car" route="route3" depart="458" departLane="random" departSpeed="10" />
    <vehicle id="roundabout_76" type="standard_car" route="route2" depart="459" departLane="random" departSpeed="10" />
    <vehicle id="roundabout_77" type="standard_car" route="route1" depart="462" departLane="random" departSpeed="10" />
    <vehicle id="roundabout_78" type="standard_car" route="route7" depart="462" departLane="random" departSpeed="10" />
    <vehicle id="roundabout_79" type="standard_car" route="route2" depart="463" departLane="random" departSpeed="10" />
    <vehicle id="roundabout_80" type="standard_car" route="route3" depart="470" departLane="random" departSpeed="10" />
    <vehicle id="roundabout_81" type="standard_car" route="route3" depart="474" departLane="random" departSpeed="10" />
    <vehicle id="roundabout_82" type="standard_car" route="route2" depart="484" departLane="random" departSpeed="10" />
    <vehicle id="roundabout_83" type="standard_car" route="route7" depart="486" departLane="random" departSpeed="10" />
    <vehicle id="roundabout_84" type="standard_car" route="route1" depart="489" departLane="random" departSpeed="10" />
    <vehicle id="roundabout_85" type="standard_car" route="route4" depart="492" departLane="random" departSpeed="10" />
    <vehicle id="roundabout_86" type="standard_car" route="route1" depart="492" departLane="random" departSpeed="10" />
    <vehicle id="roundabout_87" type="standard_car" route="route2" depart="492" departLane="random" departSpeed="10" />
    <vehicle id="roundabout_88" type="standard_car" route="route4" depart="504" departLane="random" departSpeed="10" />
    <vehicle id="roundabout_89" type="standard_car" route="route3" depart="506" departLane="random" departSpeed="10" />
    <vehicle id="roundabout_90" type="standard_car" route="route3" depart="508" departLane="random" departSpeed="10" />
    <vehicle id="roundabout_91" type="standard_car" route="route4" depart="510" departLane="random" departSpeed="10" />
    <vehicle id="roundabout_92" type="standard_car" route="route3" depart="514" departLane="random" departSpeed="10" />
    <vehicle id="roundabout_93" type="standard_car" route="route3" depart="524" departLane="random" departSpeed="10" />
    <vehicle id="roundabout_94" type="standard_car" route="route4" depart="526" departLane="random" departSpeed="10" />
    <vehicle id="roundabout_95" type="standard_car" route="route7" depart="526" departLane="random" departSpeed="10" />
    <vehicle id="roundabout_96" type="standard_car" route="route4" depart="528" departLane="random" departSpeed="10" />
    <vehicle id="roundabout_97" type="standard_car" route="route2" depart="533" departLane="random" departSpeed="10" />
    <vehicle id="roundabout_98" type="standard_car" route="route3" depart="546" departLane="random" departSpeed="10" />
    <vehicle id="roundabout_99" type="standard_car" route="route1" depart="546" departLane="random" departSpeed="10" />
    <vehicle id="roundabout_100" type="standard_car" route="route3" depart="546" departLane="random" departSpeed="10" />
    <vehicle id="roundabout_101" type="standard_car" route="route5" depart="548" departLane="random" departSpeed="10" />
    <vehicle id="roundabout_102" type="standard_car" route="route4" depart="552" departLane="random" departSpeed="10" />
    <vehicle id="roundabout_103" type="standard_car" route="route5" depart="555" departLane="random" departSpeed="10" />
    <vehicle id="roundabout_104" type="standard_car" route="route3" depart="555" departLane="random" departSpeed="10" />
    <vehicle id="roundabout_105" type="standard_car" route="route3" depart="556" departLane="random" departSpeed="10" />
    <vehicle id="roundabout_106" type="standard_car" route="route3" depart="566" departLane="random" departSpeed="10" />
    <vehicle id="roundabout_107" type="standard_car" route="route4" depart="570" departLane="random" departSpeed="10" />
    <vehicle id="roundabout_108" type="standard_car" route="route7" depart="572" departLane="random" departSpeed="10" />
    <vehicle id="roundabout_109" type="standard_car" route="route1" depart="585" departLane="random" departSpeed="10" />
    <vehicle id="roundabout_110" type="standard_car" route="route4" depart="587" departLane="random" departSpeed="10" />
    <vehicle id="roundabout_111" type="standard_car" route="route2" depart="593" departLane="random" departSpeed="10" />
    <vehicle id="roundabout_112" type="standard_car" route="route8" depart="600" departLane="random" departSpeed="10" />
    <vehicle id="roundabout_113" type="standard_car" route="route3" depart="610" departLane="random" departSpeed="10" />
    <vehicle id="roundabout_114" type="standard_car" route="route5" depart="610" departLane="random" departSpeed="10" />
    <vehicle id="roundabout_115" type="standard_car" route="route3" depart="612" departLane="random" departSpeed="10" />
    <vehicle id="roundabout_116" type="standard_car" route="route2" depart="620" departLane="random" departSpeed="10" />
    <vehicle id="roundabout_117" type="standard_car" route="route1" depart="623" departLane="random" departSpeed="10" />
    <vehicle id="roundabout_118" type="standard_car" route="route4" depart="624" departLane="random" departSpeed="10" />
    <vehicle id="roundabout_119" type="standard_car" route="route2" depart="624" departLane="random" departSpeed="10" />
    <vehicle id="roundabout_120" type="standard_car" route="route5" depart="634" departLane="random" departSpeed="10" />
    <vehicle id="roundabout_121" type="standard_car" route="route1" depart="635" departLane="random" departSpeed="10" />
    <vehicle id="roundabout_122" type="standard_car" route="route5" depart="640" departLane="random" departSpeed="10" />
    <vehicle id="roundabout_123" type="standard_car" route="route4" depart="645" departLane="random" departSpeed="10" />
    <vehicle id="roundabout_124" type="standard_car" route="route1" depart="646" departLane="random" departSpeed="10" />
    <vehicle id="roundabout_125" type="standard_car" route="route4" depart="647" departLane="random" departSpeed="10" />
    <vehicle id="roundabout_126" type="standard_car" route="route4" depart="651" departLane="random" departSpeed="10" />
    <vehicle id="roundabout_127" type="standard_car" route="route4" depart="651" departLane="random" departSpeed="10" />
    <vehicle id="roundabout_128" type="standard_car" route="route7" depart="655" departLane="random" departSpeed="10" />
    <vehicle id="roundabout_129" type="standard_car" route="route3" depart="656" departLane="random" departSpeed="10" />
    <vehicle id="roundabout_130" type="standard_car" route="route3" depart="657" departLane="random" departSpeed="10" />
    <vehicle id="roundabout_131" type="standard_car" route="route7" depart="660" departLane="random" departSpeed="10" />
    <vehicle id="roundabout_132" type="standard_car" route="route6" depart="668" departLane="random" departSpeed="10" />
    <vehicle id="roundabout_133" type="standard_car" route="route2" depart="668" departLane="random" departSpeed="10" />
    <vehicle id="roundabout_134" type="standard_car" route="route1" depart="669" departLane="random" departSpeed="10" />
    <vehicle id="roundabout_135" type="standard_car" route="route2" depart="673" departLane="random" departSpeed="10" />
    <vehicle id="roundabout_136" type="standard_car" route="route3" depart="673" departLane="random" departSpeed="10" />
    <vehicle id="roundabout_137" type="standard_car" route="route3" depart="674" departLane="random" departSpeed="10" />
    <vehicle id="roundabout_138" type="standard_car" route="route3" depart="674" departLane="random" departSpeed="10" />
    <vehicle id="roundabout_139" type="standard_car" route="route4" depart="676" departLane="random" departSpeed="10" />
    <vehicle id="roundabout_140" type="standard_car" route="route1" depart="677" departLane="random" departSpeed="10" />
    <vehicle id="roundabout_141" type="standard_car" route="route4" depart="684" departLane="random" departSpeed="10" />
    <vehicle id="roundabout_142" type="standard_car" route="route1" depart="686" departLane="random" departSpeed="10" />
    <vehicle id="roundabout_143" type="standard_car" route="route3" depart="691" departLane="random" departSpeed="10" />
    <vehicle id="roundabout_144" type="standard_car" route="route2" depart="692" departLane="random" departSpeed="10" />
    <vehicle id="roundabout_145" type="standard_car" route="route3" depart="697" departLane="random" departSpeed="10" />
    <vehicle id="roundabout_146" type="standard_car" route="route8" depart="700" departLane="random" departSpeed="10" />
    <vehicle id="roundabout_147" type="standard_car" route="route2" depart="703" departLane="random" departSpeed="10" />
    <vehicle id="roundabout_148" type="standard_car" route="route6" depart="703" departLane="random" departSpeed="10" />
    <vehicle id="roundabout_149" type="standard_car" route="route4" depart="704" departLane="random" departSpeed="10" />
    <vehicle id="roundabout_150" type="standard_car" route="route7" depart="706" departLane="random" departSpeed="10" />
    <vehicle id="roundabout_151" type="standard_car" route="route5" depart="714" departLane="random" departSpeed="10" />
    <vehicle id="roundabout_152" type="standard_car" route="route1" depart="717" departLane="random" departSpeed="10" />
    <vehicle id="roundabout_153" type="standard_car" route="route1" depart="719" departLane="random" departSpeed="10" />
    <vehicle id="roundabout_154" type="standard_car" route="route1" depart="727" departLane="random" departSpeed="10" />
    <vehicle id="roundabout_155" type="standard_car" route="route3" depart="728" departLane="random" departSpeed="10" />
    <vehicle id="roundabout_156" type="standard_car" route="route2" depart="732" departLane="random" departSpeed="10" />
    <vehicle id="roundabout_157" type="standard_car" route="route3" depart="734" departLane="random" departSpeed="10" />
    <vehicle id="roundabout_158" type="standard_car" route="route1" depart="734" departLane="random" departSpeed="10" />
    <vehicle id="roundabout_159" type="standard_car" route="route1" depart="745" departLane="random" departSpeed="10" />
    <vehicle id="roundabout_160" type="standard_car" route="route1" depart="746" departLane="random" departSpeed="10" />
    <vehicle id="roundabout_161" type="standard_car" route="route1" depart="746" departLane="random" departSpeed="10" />
    <vehicle id="roundabout_162" type="standard_car" route="route3" depart="749" departLane="random" departSpeed="10" />
    <vehicle id="roundabout_163" type="standard_car" route="route1" depart="749" departLane="random" departSpeed="10" />
    <vehicle id="roundabout_164" type="standard_car" route="route4" depart="749" departLane="random" departSpeed="10" />
    <vehicle id="roundabout_165" type="standard_car" route="route4" depart="754" departLane="random" departSpeed="10" />
    <vehicle id="roundabout_166" type="standard_car" route="route3" depart="756" departLane="random" departSpeed="10" />
    <vehicle id="roundabout_167" type="standard_car" route="route1" depart="761" departLane="random" departSpeed="10" />
    <vehicle id="roundabout_168" type="standard_car" route="route4" depart="762" departLane="random" departSpeed="10" />
    <vehicle id="roundabout_169" type="standard_car" route="route1" depart="763" departLane="random" departSpeed="10" />
    <vehicle id="roundabout_170" type="standard_car" route="route2" depart="766" departLane="random" departSpeed="10" />
    <vehicle id="roundabout_171" type="standard_car" route="route4" depart="768" departLane="random" departSpeed="10" />
    <vehicle id="roundabout_172" type="standard_car" route="route1" depart="769" departLane="random" departSpeed="10" />
    <vehicle id="roundabout_173" type="standard_car" route="route4" depart="771" departLane="random" departSpeed="10" />
    <vehicle id="roundabout_174" type="standard_car" route="route2" depart="777" departLane="random" departSpeed="10" />
    <vehicle id="roundabout_175" type="standard_car" route="route4" depart="781" departLane="random" departSpeed="10" />
    <vehicle id="roundabout_176" type="standard_car" route="route4" depart="789" departLane="random" departSpeed="10" />
    <vehicle id="roundabout_177" type="standard_car" route="route1" depart="792" departLane="random" departSpeed="10" />
    <vehicle id="roundabout_178" type="standard_car" route="route3" depart="793" departLane="random" departSpeed="10" />
    <vehicle id="roundabout_179" type="standard_car" route="route8" depart="794" departLane="random" departSpeed="10" />
    <vehicle id="roundabout_180" type="standard_car" route="route3" depart="794" departLane="random" departSpeed="10" />
    <vehicle id="roundabout_181" type="standard_car" route="route1" depart="796" departLane="random" departSpeed="10" />
    <vehicle id="roundabout_182" type="standard_car" route="route2" depart="797" departLane="random" departSpeed="10" />
    <vehicle id="roundabout_183" type="standard_car" route="route1" depart="801" departLane="random" departSpeed="10" />
    <vehicle id="roundabout_184" type="standard_car" route="route3" depart="801" departLane="random" departSpeed="10" />
    <vehicle id="roundabout_185" type="standard_car" route="route3" depart="804" departLane="random" departSpeed="10" />
    <vehicle id="roundabout_186" type="standard_car" route="route7" depart="804" departLane="random" departSpeed="10" />
    <vehicle id="roundabout_187" type="standard_car" route="route4" depart="805" departLane="random" departSpeed="10" />
    <vehicle id="roundabout_188" type="standard_car" route="route4" depart="806" departLane="random" departSpeed="10" />
    <vehicle id="roundabout_189" type="standard_car" route="route1" depart="808" departLane="random" departSpeed="10" />
    <vehicle id="roundabout_190" type="standard_car" route="route1" depart="816" departLane="random" departSpeed="10" />
    <vehicle id="roundabout_191" type="standard_car" route="route3" depart="821" departLane="random" departSpeed="10" />
    <vehicle id="roundabout_192" type="standard_car" route="route4" depart="822" departLane="random" departSpeed="10" />
    <vehicle id="roundabout_193" type="standard_car" route="route4" depart="822" departLane="random" departSpeed="10" />
    <vehicle id="roundabout_194" type="standard_car" route="route3" depart="824" departLane="random" departSpeed="10" />
    <vehicle id="roundabout_195" type="standard_car" route="route4" depart="825" departLane="random" departSpeed="10" />
    <vehicle id="roundabout_196" type="standard_car" route="route8" depart="826" departLane="random" departSpeed="10" />
    <vehicle id="roundabout_197" type="standard_car" route="route1" depart="828" departLane="random" departSpeed="10" />
    <vehicle id="roundabout_198" type="standard_car" route="route4" depart="828" departLane="random" departSpeed="10" />
    <vehicle id="roundabout_199" type="standard_car" route="route3" depart="828" departLane="random" departSpeed="10" />
    <vehicle id="roundabout_200" type="standard_car" route="route8" depart="833" departLane="random" departSpeed="10" />
    <vehicle id="roundabout_201" type="standard_car" route="route5" depart="834" departLane="random" departSpeed="10" />
    <vehicle id="roundabout_202" type="standard_car" route="route7" depart="837" departLane="random" departSpeed="10" />
    <vehicle id="roundabout_203" type="standard_car" route="route5" depart="844" departLane="random" departSpeed="10" />
    <vehicle id="roundabout_204" type="standard_car" route="route2" depart="844" departLane="random" departSpeed="10" />
    <vehicle id="roundabout_205" type="standard_car" route="route3" depart="852" departLane="random" departSpeed="10" />
    <vehicle id="roundabout_206" type="standard_car" route="route1" depart="852" departLane="random" departSpeed="10" />
    <vehicle id="roundabout_207" type="standard_car" route="route4" depart="855" departLane="random" departSpeed="10" />
    <vehicle id="roundabout_208" type="standard_car" route="route3" depart="855" departLane="random" departSpeed="10" />
    <vehicle id="roundabout_209" type="standard_car" route="route4" depart="858" departLane="random" departSpeed="10" />
    <vehicle id="roundabout_210" type="standard_car" route="route8" depart="858" departLane="random" departSpeed="10" />
    <vehicle id="roundabout_211" type="standard_car" route="route3" depart="860" departLane="random" departSpeed="10" />
    <vehicle id="roundabout_212" type="standard_car" route="route3" depart="866" departLane="random" departSpeed="10" />
    <vehicle id="roundabout_213" type="standard_car" route="route3" depart="868" departLane="random" departSpeed="10" />
    <vehicle id="roundabout_214" type="standard_car" route="route3" depart="869" departLane="random" departSpeed="10" />
    <vehicle id="roundabout_215" type="standard_car" route="route2" depart="871" departLane="random" departSpeed="10" />
    <vehicle id="roundabout_216" type="standard_car" route="route3" depart="875" departLane="random" departSpeed="10" />
    <vehicle id="roundabout_217" type="standard_car" route="route8" depart="883" departLane="random" departSpeed="10" />
    <vehicle id="roundabout_218" type="standard_car" route="route8" depart="891" departLane="random" departSpeed="10" />
    <vehicle id="roundabout_219" type="standard_car" route="route5" depart="894" departLane="random" departSpeed="10" />
    <vehicle id="roundabout_220" type="standard_car" route="route2" depart="897" departLane="random" departSpeed="10" />
    <vehicle id="roundabout_221" type="standard_car" route="route3" depart="903" departLane="random" departSpeed="10" />
    <vehicle id="roundabout_222" type="standard_car" route="route1" depart="909" departLane="random" departSpeed="10" />
    <vehicle id="roundabout_223" type="standard_car" route="route3" depart="909" departLane="random" departSpeed="10" />
    <vehicle id="roundabout_224" type="standard_car" route="route7" depart="910" departLane="random" departSpeed="10" />
    <vehicle id="roundabout_225" type="standard_car" route="route3" depart="910" departLane="random" departSpeed="10" />
    <vehicle id="roundabout_226" type="standard_car" route="route4" depart="910" departLane="random" departSpeed="10" />
    <vehicle id="roundabout_227" type="standard_car" route="route1" depart="911" departLane="random" departSpeed="10" />
    <vehicle id="roundabout_228" type="standard_car" route="route3" depart="913" departLane="random" departSpeed="10" />
    <vehicle id="roundabout_229" type="standard_car" route="route2" depart="915" departLane="random" departSpeed="10" />
    <vehicle id="roundabout_230" type="standard_car" route="route2" depart="917" departLane="random" departSpeed="10" />
    <vehicle id="roundabout_231" type="standard_car" route="route4" depart="918" departLane="random" departSpeed="10" />
    <vehicle id="roundabout_232" type="standard_car" route="route4" depart="918" departLane="random" departSpeed="10" />
    <vehicle id="roundabout_233" type="standard_car" route="route4" depart="931" departLane="random" departSpeed="10" />
    <vehicle id="roundabout_234" type="standard_car" route="route7" depart="931" departLane="random" departSpeed="10" />
    <vehicle id="roundabout_235" type="standard_car" route="route4" depart="933" departLane="random" departSpeed="10" />
    <vehicle id="roundabout_236" type="standard_car" route="route4" depart="935" departLane="random" departSpeed="10" />
    <vehicle id="roundabout_237" type="standard_car" route="route4" depart="935" departLane="random" departSpeed="10" />
    <vehicle id="roundabout_238" type="standard_car" route="route4" depart="936" departLane="random" departSpeed="10" />
    <vehicle id="roundabout_239" type="standard_car" route="route5" depart="939" departLane="random" departSpeed="10" />
    <vehicle id="roundabout_240" type="standard_car" route="route1" depart="940" departLane="random" departSpeed="10" />
    <vehicle id="roundabout_241" type="standard_car" route="route4" depart="941" departLane="random" departSpeed="10" />