<routes>
    <!-- Define emergency vehicle type -->
    <vType id="emergency" accel="3.0" decel="6.0" color="1,0,0"
           maxSpeed="20" sigma="0.5" emergency="true" />
    <!-- Define standard vehicle type -->
    <vType id="standard_car" accel="1.0" decel="4.5" length="5.0"
           minGap="2.5" maxSpeed="25" sigma="0.5" />

    <route id="route1" edges="e1 r1 e2_out"/>
    <route id="route2" edges="e2 r2 e3_out"/>
    <route id="route3" edges="e3 r3 e4_out"/>
    <route id="route4" edges="e4 r4 e1_out"/>
    <route id="route5" edges="e1 r1 r2 e3_out"/>
    <route id="route6" edges="e2 r2 r3 e4_out"/>
    <route id="route7" edges="e3 r3 r4 e1_out"/>
    <route id="route8" edges="e4 r4 r1 e2_out"/>
    <vehicle id="roundabout_0" type="standard_car" route="route1" depart="36" departLane="random" departSpeed="10" />
    <vehicle id="roundabout_1" type="standard_car" route="route7" depart="50" departLane="random" departSpeed="10" />
    <vehicle id="roundabout_2" type="standard_car" route="route3" depart="50" departLane="random" departSpeed="10" />
    <vehicle id="roundabout_3" type="standard_car" route="route3" depart="51" departLane="random" departSpeed="10" />
    <vehicle id="roundabout_4" type="standard_car" route="route2" depart="63" departLane="random" departSpeed="10" />
    <vehicle id="roundabout_5" type="standard_car" route="route5" depart="72" departLane="random" departSpeed="10" />
    <vehicle id="roundabout_6" type="standard_car" route="route1" depart="73" departLane="random" departSpeed="10" />
    <vehicle id="roundabout_7" type="standard_car" route="route3" depart="79" departLane="random" departSpeed="10" />
    <vehicle id="roundabout_8" type="standard_car" route="route1" depart="83" departLane="random" departSpeed="10" />
    <vehicle id="roundabout_9" type="standard_car" route="route4" depart="89" departLane="random" departSpeed="10" />
    <vehicle id="roundabout_10" type="standard_car" route="route6" depart="104" departLane="random" departSpeed="10" />
    <vehicle id="roundabout_11" type="standard_car" route="route4" depart="124" departLane="random" departSpeed="10" />
    <vehicle id="roundabout_12" type="standard_car" route="route4" depart="132" departLane="random" departSpeed="10" />
    <vehicle id="roundabout_13" type="standard_car" route="route2" depart="136" departLane="random" departSpeed="10" />
    <vehicle id="roundabout_14" type="standard_car" route="route1" depart="138" departLane="random" departSpeed="10" />
    <vehicle id="roundabout_15" type="standard_car" route="route1" depart="143" departLane="random" departSpeed="10" />
    <vehicle id="roundabout_16" type="standard_car" route="route8" depart="148" departLane="random" departSpeed="10" />
    <vehicle id="roundabout_17" type="standard_car" route="route1" depart="150" departLane="random" departSpeed="10" />
    <vehicle id="roundabout_18" type="standard_car" route="route1" depart="169" departLane="random" departSpeed="10" />
    <vehicle id="roundabout_19" type="standard_car" route="route2" depart="169" departLane="random" departSpeed="10" />
    <vehicle id="roundabout_20" type="standard_car" route="route1" depart="170" departLane="random" departSpeed="10" />
    <vehicle id="roundabout_21" type="standard_car" route="route1" depart="172" departLane="random" departSpeed="10" />
    <vehicle id="roundabout_22" type="standard_car" route="route4" depart="174" departLane="random" departSpeed="10" />
    <vehicle id="roundabout_23" type="standard_car" route="route1" depart="182" departLane="random" departSpeed="10" />
    <vehicle id="roundabout_24" type="standard_car" route="route1" depart="183" departLane="random" departSpeed="10" />
    <vehicle id="roundabout_25" type="standard_car" route="route2" depart="189" departLane="random" departSpeed="10" />
    <vehicle id="roundabout_26" type="standard_car" route="route4" depart="190" departLane="random" departSpeed="10" />
    <vehicle id="roundabout_27" type="standard_car" route="route1" depart="195" departLane="random" departSpeed="10" />
    <vehicle id="roundabout_28" type="standard_car" route="route2" depart="225" departLane="random" departSpeed="10" />
    <vehicle id="roundabout_29" type="standard_car" route="route5" depart="225" departLane="random" departSpeed="10" />
    <vehicle id="roundabout_30" type="standard_car" route="route4" depart="228" departLane="random" departSpeed="10" />
    <vehicle id="roundabout_31" type="standard_car" route="route8" depart="231" departLane="random" departSpeed="10" />
    <vehicle id="roundabout_32" type="standard_car" route="route7" depart="232" departLane="random" departSpeed="10" />
    <vehicle id="roundabout_33" type="standard_car" route="route1" depart="236" departLane="random" departSpeed="10" />
    <vehicle id="roundabout_34" type="standard_car" route="route2" depart="239" departLane="random" departSpeed="10" />
    <vehicle id="roundabout_35" type="standard_car" route="route3" depart="249" departLane="random" departSpeed="10" />
    <vehicle id="roundabout_36" type="standard_car" route="route4" depart="250" departLane="random" departSpeed="10" />
    <vehicle id="roundabout_37" type="standard_car" route="route1" depart="251" departLane="random" departSpeed="10" />
    <vehicle id="roundabout_38" type="standard_car" route="route6" depart="254" departLane="random" departSpeed="10" />
    <vehicle id="roundabout_39" type="standard_car" route="route8" depart="254" departLane="random" departSpeed="10" />
    <vehicle id="roundabout_40" type="standard_car" route="route4" depart="255" departLane="random" departSpeed="10" />
    <vehicle id="roundabout_41" type="standard_car" route="route1" depart="255" departLane="random" departSpeed="10" />
    <vehicle id="roundabout_42" type="standard_car" route="route3" depart="260" departLane="random" departSpeed="10" />
    <vehicle id="roundabout_43" type="standard_car" route="route2" depart="262" departLane="random" departSpeed="10" />
    <vehicle id="roundabout_44" type="standard_car" route="route4" depart="263" departLane="random" departSpeed="10" />
    <vehicle id="roundabout_45" type="standard_car" route="route4" depart="272" departLane="random" departSpeed="10" />
    <vehicle id="roundabout_46" type="standard_car" route="route2" depart="274" departLane="random" departSpeed="10" />
    <vehicle id="roundabout_47" type="standard_car" route="route3" depart="275" departLane="random" departSpeed="10" />
    <vehicle id="roundabout_48" type="standard_car" route="route3" depart="288" departLane="random" departSpeed="10" />
    <vehicle id="roundabout_49" type="standard_car" route="route6" depart="290" departLane="random" departSpeed="10" />
    <vehicle id="roundabout_50" type="standard_car" route="route1" depart="291" departLane="random" departSpeed="10" />
    <vehicle id="roundabout_51" type="standard_car" route="route3" depart="292" departLane="random" departSpeed="10" />
    <vehicle id="roundabout_52" type="standard_car" route="route2" depart="307" departLane="random" departSpeed="10" />
    <vehicle id="roundabout_53" type="standard_car" route="route2" depart="309" departLane="random" departSpeed="10" />
    <vehicle id="roundabout_54" type="standard_car" route="route2" depart="310" departLane="random" departSpeed="10" />
    <vehicle id="roundabout_55" type="standard_car" route="route2" depart="314" departLane="random" departSpeed="10" />
    <vehicle id="roundabout_56" type="standard_car" route="route6" depart="314" departLane="random" departSpeed="10" />
    <vehicle id="roundabout_57" type="standard_car" route="route1" depart="316" departLane="random" departSpeed="10" />
    <vehicle id="roundabout_58" type="standard_car" route="route4" depart="319" departLane="random" departSpeed="10" />
    <vehicle id="roundabout_59" type="standard_car" route="route1" depart="321" departLane="random" departSpeed="10" />
    <vehicle id="roundabout_60" type="standard_car" route="route3" depart="331" departLane="random" departSpeed="10" />
    <vehicle id="roundabout_61" type="standard_car" route="route1" depart="336" departLane="random" departSpeed="10" />
    <vehicle id="roundabout_62" type="standard_car" route="route8" depart="338" departLane="random" departSpeed="10" />
    <vehicle id="roundabout_63" type="standard_car" route="route3" depart="341" departLane="random" departSpeed="10" />
    <vehicle id="roundabout_64" type="standard_car" route="route4" depart="341" departLane="random" departSpeed="10" />
    <vehicle id="roundabout_65" type="standard_car" route="route5" depart="341" departLane="random" departSpeed="10" />
    <vehicle id="roundabout_66" type="standard_car" route="route4" depart="341" departLane="random" departSpeed="10" />
    <vehicle id="roundabout_67" type="standard_car" route="route3" depart="342" departLane="random" departSpeed="10" />
    <vehicle id="roundabout_68" type="standard_car" route="route2" depart="342" departLane="random" departSpeed="10" />
    <vehicle id="roundabout_69" type="standard_car" route="route4" depart="343" departLane="random" departSpeed="10" />
    <vehicle id="roundabout_70" type="standard_car" route="route5" depart="346" departLane="random" departSpeed="10" />
    <vehicle id="roundabout_71" type="standard_car" route="route5" depart="346" departLane="random" departSpeed="10" />
    <vehicle id="roundabout_72" type="standard_car" route="route2" depart="354" departLane="random" departSpeed="10" />
    <vehicle id="roundabout_73" type="standard_car" route="route2" depart="357" departLane="random" departSpeed="10" />
    <vehicle id="roundabout_74" type="standard_car" route="route1" depart="363" departLane="random" departSpeed="10" />
    <vehicle id="roundabout_75" type="standard_car" route="route1" depart="365" departLane="random" departSpeed="10" />
    <vehicle id="roundabout_76" type="standard_car" route="route8" depart="366" departLane="random" departSpeed="10" />
    <vehicle id="roundabout_77" type="standard_car" route="route4" depart="366" departLane="random" departSpeed="10" />
    <vehicle id="roundabout_78" type="standard_car" route="route2" depart="369" departLane="random" departSpeed="10" />
    <vehicle id="roundabout_79" type="standard_car" route="route1" depart="372" departLane="random" departSpeed="10" />
    <vehicle id="roundabout_80" type="standard_car" route="route1" depart="372" departLane="random" departSpeed="10" />
    <vehicle id="roundabout_81" type="standard_car" route="route6" depart="374" departLane="random" departSpeed="10" />
    <vehicle id="roundabout_82" type="standard_car" route="route2" depart="374" departLane="random" departSpeed="10" />
    <vehicle id="roundabout_83" type="standard_car" route="route1" depart="376" departLane="random" departSpeed="10" />
    <vehicle id="roundabout_84" type="standard_car" route="route7" depart="377" departLane="random" departSpeed="10" />
    <vehicle id="roundabout_85" type="standard_car" route="route1" depart="382" departLane="random" departSpeed="10" />
    <vehicle id="roundabout_86" type="standard_car" route="route3" depart="383" departLane="random" departSpeed="10" />
    <vehicle id="roundabout_87" type="standard_car" route="route7" depart="389" departLane="random" departSpeed="10" />
    <vehicle id="roundabout_88" type="standard_car" route="route6" depart="393" departLane="random" departSpeed="10" />
    <vehicle id="roundabout_89" type="standard_car" route="route3" depart="394" departLane="random" departSpeed="10" />
    <vehicle id="roundabout_90" type="standard_car" route="route5" depart="395" departLane="random" departSpeed="10" />
    <vehicle id="roundabout_91" type="standard_car" route="route3" depart="397" departLane="random" departSpeed="10" />
    <vehicle id="roundabout_92" type="standard_car" route="route8" depart="398" departLane="random" departSpeed="10" />
    <vehicle id="roundabout_93" type="standard_car" route="route4" depart="399" departLane="random" departSpeed="10" />
    <vehicle id="roundabout_94" type="standard_car" route="route8" depart="403" departLane="random" departSpeed="10" />
    <vehicle id="roundabout_95" type="standard_car" route="route4" depart="403" departLane="random" departSpeed="10" />
    <vehicle id="roundabout_96" type="standard_car" route="route2" depart="404" departLane="random" departSpeed="10" />
    <vehicle id="roundabout_97" type="standard_car" route="route1" depart="405" departLane="random" departSpeed="10" />
    <vehicle id="roundabout_98" type="standard_car" route="route2" depart="405" departLane="random" departSpeed="10" />
    <vehicle id="roundabout_99" type="standard_car" route="route4" depart="406" departLane="random" departSpeed="10" />
    <vehicle id="roundabout_100" type="standard_car" route="route1" depart="407" departLane="random" departSpeed="10" />
    <vehicle id="roundabout_101" type="standard_car" route="route4" depart="412" departLane="random" departSpeed="10" />
    <vehicle id="roundabout_102" type="standard_car" route="route1" depart="414" departLane="random" departSpeed="10" />
    <vehicle id="roundabout_103" type="standard_car" route="route1" depart="414" departLane="random" departSpeed="10" />
    <vehicle id="roundabout_104" type="standard_car" route="route5" depart="418" departLane="random" departSpeed="10" />
    <vehicle id="roundabout_105" type="standard_car" route="route4" depart="419" departLane="random" departSpeed="10" />
    <vehicle id="roundabout_106" type="standard_car" route="route1" depart="419" departLane="random" departSpeed="10" />
    <vehicle id="roundabout_107" type="standard_car" route="route1" depart="422" departLane="random" departSpeed="10" />
    <vehicle id="roundabout_108" type="standard_car" route="route2" depart="425" departLane="random" departSpeed="10" />
    <vehicle id="roundabout_109" type="standard_car" route="route2" depart="426" departLane="random" departSpeed="10" />
    <vehicle id="roundabout_110" type="standard_car" route="route5" depart="428" departLane="random" departSpeed="10" />
    <vehicle id="roundabout_111" type="standard_car" route="route4" depart="434" departLane="random" departSpeed="10" />
    <vehicle id="roundabout_112" type="standard_car" route="route4" depart="435" departLane="random" departSpeed="10" />
    <vehicle id="roundabout_113" type="standard_car" route="route3" depart="438" departLane="random" departSpeed="10" />
    <vehicle id="roundabout_114" type="standard_car" route="route3" depart="446" departLane="random" departSpeed="10" />
    <vehicle id="roundabout_115" type="standard_car" route="route3" depart="447" departLane="random" departSpeed="10" />
    <vehicle id="roundabout_116" type="standard_car" route="route1" depart="451" departLane="random" departSpeed="10" />
    <vehicle id="roundabout_117" type="standard_car" route="route1" depart="451" departLane="random" departSpeed="10" />
    <vehicle id="roundabout_118" type="standard_car" route="route1" depart="451" departLane="random" departSpeed="10" />
    <vehicle id="roundabout_119" type="standard_car" route="route4" depart="453" departLane="random" departSpeed="10" />
    <vehicle id="roundabout_120" type="standard_car" route="route4" depart="454" departLane="random" departSpeed="10" />
    <vehicle id="roundabout_121" type="standard_car" route="route2" depart="456" departLane="random" departSpeed="10" />
    <vehicle id="roundabout_122" type="standard_car" route="route4" depart="457" departLane="random" departSpeed="10" />
    <vehicle id="roundabout_123" type="standard_car" route="route1" depart="460" departLane="random" departSpeed="10" />
    <vehicle id="roundabout_124" type="standard_car" route="route4" depart="464" departLane="random" departSpeed="10" />
    <vehicle id="roundabout_125" type="standard_car" route="route1" depart="466" departLane="random" departSpeed="10" />
    <vehicle id="roundabout_126" type="standard_car" route="route8" depart="466" departLane="random" departSpeed="10" />
    <vehicle id="roundabout_127" type="standard_car" route="route2" depart="467" departLane="random" departSpeed="10" />
    <vehicle id="roundabout_128" type="standard_car" route="route4" depart="470" departLane="random" departSpeed="10" />
    <vehicle id="roundabout_129" type="standard_car" route="route1" depart="470" departLane="random" departSpeed="10" />
    <vehicle id="roundabout_130" type="standard_car" route="route4" depart="470" departLane="random" departSpeed="10" />
    <vehicle id="roundabout_131" type="standard_car" route="route8" depart="471" departLane="random" departSpeed="10" />
    <vehicle id="roundabout_132" type="standard_car" route="route4" depart="472" departLane="random" departSpeed="10" />
    <vehicle id="roundabout_133" type="standard_car" route="route4" depart="473" departLane="random" departSpeed="10" />
    <vehicle id="roundabout_134" type="standard_car" route="route3" depart="476" departLane="random" departSpeed="10" />
    <vehicle id="roundabout_135" type="standard_car" route="route2" depart="476" departLane="random" departSpeed="10" />
    <vehicle id="roundabout_136" type="standard_car" route="route4" depart="477" departLane="random" departSpeed="10" />
    <vehicle id="roundabout_137" type="standard_car" route="route5" depart="478" departLane="random" departSpeed="10" />
    <vehicle id="roundabout_138" type="standard_car" route="route2" depart="479" departLane="random" departSpeed="10" />
    <vehicle id="roundabout_139" type="standard_car" route="route2" depart="481" departLane="random" departSpeed="10" />
    <vehicle id="roundabout_140" type="standard_car" route="route1" depart="482" departLane="random" departSpeed="10" />
    <vehicle id="roundabout_141" type="standard_car" route="route2" depart="483" departLane="random" departSpeed="10" />
    <vehicle id="roundabout_142" type="standard_car" route="route1" depart="483" departLane="random" departSpeed="10" />
    <vehicle id="roundabout_143" type="standard_car" route="route4" depart="485" departLane="random" departSpeed="10" />
    <vehicle id="roundabout_144" type="standard_car" route="route1" depart="491" departLane="random" departSpeed="10" />
    <vehicle id="roundabout_145" type="standard_car" route="route2" depart="492" departLane="random" departSpeed="10" />
    <vehicle id="roundabout_146" type="standard_car" route="route1" depart="493" departLane="random" departSpeed="10" />
    <vehicle id="roundabout_147" type="standard_car" route="route2" depart="494" departLane="random" departSpeed="10" />
    <vehicle id="roundabout_148" type="standard_car" route="route4" depart="497" departLane="random" departSpeed="10" />
    <vehicle id="roundabout_149" type="standard_car" route="route4" depart="498" departLane="random" departSpeed="10" />
    <vehicle id="roundabout_150" type="standard_car" route="route3" depart="499" departLane="random" departSpeed="10" />
    <vehicle id="roundabout_151" type="standard_car" route="route6" depart="500" departLane="random" departSpeed="10" />
    <vehicle id="roundabout_152" type="standard_car" route="route3" depart="500" departLane="random" departSpeed="10" />
    <vehicle id="roundabout_153" type="standard_car" route="route2" depart="500" departLane="random" departSpeed="10" />
    <vehicle id="roundabout_154" type="standard_car" route="route2" depart="501" departLane="random" departSpeed="10" />
    <vehicle id="roundabout_155" type="standard_car" route="route5" depart="501" departLane="random" departSpeed="10" />
    <vehicle id="roundabout_156" type="standard_car" route="route1" depart="505" departLane="random" departSpeed="10" />
    <vehicle id="roundabout_157" type="standard_car" route="route2" depart="506" departLane="random" departSpeed="10" />
    <vehicle id="roundabout_158" type="standard_car" route="route4" depart="506" departLane="random" departSpeed="10" />
    <vehicle id="roundabout_159" type="standard_car" route="route1" depart="510" departLane="random" departSpeed="10" />
    <vehicle id="roundabout_160" type="standard_car" route="route3" depart="511" departLane="random" departSpeed="10" />
    <vehicle id="roundabout_161" type="standard_car" route="route2" depart="511" departLane="random" departSpeed="10" />
    <vehicle id="roundabout_162" type="standard_car" route="route3" depart="514" departLane="random" departSpeed="10" />
    <vehicle id="roundabout_163" type="standard_car" route="route8" depart="519" departLane="random" departSpeed="10" />
    <vehicle id="roundabout_164" type="standard_car" route="route3" depart="520" departLane="random" departSpeed="10" />
    <vehicle id="roundabout_165" type="standard_car" route="route1" depart="521" departLane="random" departSpeed="10" />
    <vehicle id="roundabout_166" type="standard_car" route="route4" depart="523" departLane="random" departSpeed="10" />
    <vehicle id="roundabout_167" type="standard_car" route="route8" depart="523" departLane="random" departSpeed="10" />
    <vehicle id="roundabout_168" type="standard_car" route="route4" depart="525" departLane="random" departSpeed="10" />
    <vehicle id="roundabout_169" type="standard_car" route="route1" depart="527" departLane="random" departSpeed="10" />
    <vehicle id="roundabout_170" type="standard_car" route="route7" depart="528" departLane="random" departSpeed="10" />
    <vehicle id="roundabout_171" type="standard_car" route="route8" depart="530" departLane="random" departSpeed="10" />
    <vehicle id="roundabout_172" type="standard_car" route="route3" depart="534" departLane="random" departSpeed="10" />
    <vehicle id="roundabout_173" type="standard_car" route="route2" depart="538" departLane="random" departSpeed="10" />
    <vehicle id="roundabout_174" type="standard_car" route="route1" depart="539" departLane="random" departSpeed="10" />
    <vehicle id="roundabout_175" type="standard_car" route="route1" depart="540" departLane="random" departSpeed="10" />
    <vehicle id="roundabout_176" type="standard_car" route="route1" depart="540" departLane="random" departSpeed="10" />
    <vehicle id="roundabout_177" type="standard_car" route="route6" depart="540" departLane="random" departSpeed="10" />
    <vehicle id="roundabout_178" type="standard_car" route="route2" depart="543" departLane="random" departSpeed="10" />
    <vehicle id="roundabout_179" type="standard_car" route="route3" depart="544" departLane="random" departSpeed="10" />
    <vehicle id="roundabout_180" type="standard_car" route="route4" depart="546" departLane="random" departSpeed="10" />
    <vehicle id="roundabout_181" type="standard_car" route="route4" depart="549" departLane="random" departSpeed="10" />
    <vehicle id="roundabout_182" type="standard_car" route="route3" depart="551" departLane="random" departSpeed="10" />
    <vehicle id="roundabout_183" type="standard_car" route="route4" depart="555" departLane="random" departSpeed="10" />
    <vehicle id="roundabout_184" type="standard_car" route="route6" depart="560" departLane="random" departSpeed="10" />
    <vehicle id="roundabout_185" type="standard_car" route="route8" depart="560" departLane="random" departSpeed="10" />
    <vehicle id="roundabout_186" type="standard_car" route="route8" depart="560" departLane="random" departSpeed="10" />
    <vehicle id="roundabout_187" type="standard_car" route="route5" depart="563" departLane="random" departSpeed="10" />
    <vehicle id="roundabout_188" type="standard_car" route="route1" depart="564" departLane="random" departSpeed="10" />
    <vehicle id="roundabout_189" type="standard_car" route="route2" depart="564" departLane="random" departSpeed="10" />
    <vehicle id="roundabout_190" type="standard_car" route="route3" depart="567" departLane="random" departSpeed="10" />
    <vehicle id="roundabout_191" type="standard_car" route="route2" depart="568" departLane="random" departSpeed="10" />
    <vehicle id="roundabout_192" type="standard_car" route="route2" depart="570" departLane="random" departSpeed="10" />
    <vehicle id="roundabout_193" type="standard_car" route="route3" depart="570" departLane="random" departSpeed="10" />
    <vehicle id="roundabout_194" type="standard_car" route="route7" depart="571" departLane="random" departSpeed="10" />
    <vehicle id="roundabout_195" type="standard_car" route="route3" depart="571" departLane="random" departSpeed="10" />
    <vehicle id="roundabout_196" type="standard_car" route="route1" depart="572" departLane="random" departSpeed="10" />
    <vehicle id="roundabout_197" type="standard_car" route="route2" depart="572" departLane="random" departSpeed="10" />
    <vehicle id="roundabout_198" type="standard_car" route="route4" depart="572" departLane="random" departSpeed="10" />
    <vehicle id="roundabout_199" type="standard_car" route="route2" depart="576" departLane="random" departSpeed="10" />
    <vehicle id="roundabout_200" type="standard_car" route="route4" depart="579" departLane="random" departSpeed="10" />
    <vehicle id="roundabout_201" type="standard_car" route="route3" depart="581" departLane="random" departSpeed="10" />
    <vehicle id="roundabout_202" type="standard_car" route="route6" depart="582" departLane="random" departSpeed="10" />
    <vehicle id="roundabout_203" type="standard_car" route="route5" depart="583" departLane="random" departSpeed="10" />
    <vehicle id="roundabout_204" type="standard_car" route="route2" depart="583" departLane="random" departSpeed="10" />
    <vehicle id="roundabout_205" type="standard_car" route="route2" depart="584" departLane="random" departSpeed="10" />
    <vehicle id="roundabout_206" type="standard_car" route="route5" depart="600" departLane="random" departSpeed="10" />
    <vehicle id="roundabout_207" type="standard_car" route="route2" depart="603" departLane="random" departSpeed="10" />
    <vehicle id="roundabout_208" type="standard_car" route="route2" depart="603" departLane="random" departSpeed="10" />
    <vehicle id="roundabout_209" type="standard_car" route="route2" depart="603" departLane="random" departSpeed="10" />
    <vehicle id="roundabout_210" type="standard_car" route="route1" depart="605" departLane="random" departSpeed="10" />
    <vehicle id="roundabout_211" type="standard_car" route="route3" depart="606" departLane="random" departSpeed="10" />
    <vehicle id="roundabout_212" type="standard_car" route="route6" depart="607" departLane="random" departSpeed="10" />
    <vehicle id="roundabout_213" type="standard_car" route="route6" depart="610" departLane="random" departSpeed="10" />
    <vehicle id="roundabout_214" type="standard_car" route="route4" depart="616" departLane="random" departSpeed="10" />
    <vehicle id="roundabout_215" type="standard_car" route="route7" depart="625" departLane="random" departSpeed="10" />
    <vehicle id="roundabout_216" type="standard_car" route="route1" depart="627" departLane="random" departSpeed="10" />
    <vehicle id="roundabout_217" type="standard_car" route="route5" depart="629" departLane="random" departSpeed="10" />
    <vehicle id="roundabout_218" type="standard_car" route="route2" depart="630" departLane="random" departSpeed="10" />
    <vehicle id="roundabout_219" type="standard_car" route="route3" depart="632" departLane="random" departSpeed="10" />
    <vehicle id="roundabout_220" type="standard_car" route="route8" depart="633" departLane="random" departSpeed="10" />
    <vehicle id="roundabout_221" type="standard_car" route="route2" depart="637" departLane="random" departSpeed="10" />
    <vehicle id="roundabout_222" type="standard_car" route="route3" depart="637" departLane="random" departSpeed="10" />
    <vehicle id="roundabout_223" type="standard_car" route="route3" depart="639" departLane="random" departSpeed="10" />
    <vehicle id="roundabout_224" type="standard_car" route="route2" depart="644" departLane="random" departSpeed="10" />
    <vehicle id="roundabout_225" type="standard_car" route="route3" depart="647" departLane="random" departSpeed="10" />
    <vehicle id="roundabout_226" type="standard_car" route="route1" depart="647" departLane="random" departSpeed="10" />
    <vehicle id="roundabout_227" type="standard_car" route="route1" depart="650" departLane="random" departSpeed="10" />
    <vehicle id="roundabout_228" type="standard_car" route="route8" depart="650" departLane="random" departSpeed="10" />
    <vehicle id="roundabout_229" type="standard_car" route="route3" depart="654" departLane="random" departSpeed="10" />
    <vehicle id="roundabout_230" type="standard_car" route="route7" depart="658" departLane="random" departSpeed="10" />
    <vehicle id="roundabout_231" type="standard_car" route="route1" depart="659" departLane="random" departSpeed="10" />
    <vehicle id="roundabout_232" type="standard_car" route="route2" depart="660" departLane="random" departSpeed="10" />
    <vehicle id="roundabout_233" type="standard_car" route="route2" depart="660" departLane="random" departSpeed="10" />
    <vehicle id="roundabout_234" type="standard_car" route="route1" depart="662" departLane="random" departSpeed="10" />
    <vehicle id="roundabout_235" type="standard_car" route="route2" depart="664" departLane="random" departSpeed="10" />
    <vehicle id="roundabout_236" type="standard_car" route="route3" depart="665" departLane="random" departSpeed="10" />
    <vehicle id="roundabout_237" type="standard_car" route="route2" depart="667" departLane="random" departSpeed="10" />
    <vehicle id="roundabout_238" type="standard_car" route="route5" depart="667" departLane="random" departSpeed="10" />
    <vehicle id="roundabout_239" type="standard_car" route="route4" depart="670" departLane="random" departSpeed="10" />
    <vehicle id="roundabout_240" type="standard_car" route="route4" depart="670" departLane="random" departSpeed="10" />
    <vehicle id="roundabout_241" type="standard_car" route="route1" depart="674" departLane="random" departSpeed="10" />
    <vehicle id="roundabout_242" type="standard_car" route="route3" depart="678" departLane="random" departSpeed="10" />