<routes>
    <!-- Define emergency vehicle type -->
    <vType id="emergency" accel="3.0" decel="6.0" color="1,0,0"
           maxSpeed="20" sigma="0.5" emergency="true" />
    <!-- Define standard vehicle type -->
    <vType id="standard_car" accel="1.0" decel="4.5" length="5.0"
           minGap="2.5" maxSpeed="25" sigma="0.5" />

    <route id="route1" edges="e1 r1 e2_out"/>
    <route id="route2" edges="e2 r2 e3_out"/>
    <route id="route3" edges="e3 r3 e4_out"/>
    <route id="route4" edges="e4 r4 e1_out"/>
    <route id="route5" edges="e1 r1 r2 e3_out"/>
    <route id="route6" edges="e2 r2 r3 e4_out"/>
    <route id="route7" edges="e3 r3 r4 e1_out"/>
    <route id="route8" edges="e4 r4 r1 e2_out"/>
    <vehicle id="roundabout_0" type="standard_car" route="route8" depart="35" departLane="random" departSpeed="10" />
    <vehicle id="roundabout_1" type="standard_car" route="route5" depart="42" departLane="random" departSpeed="10" />
    <vehicle id="roundabout_2" type="standard_car" route="route1" depart="46" departLane="random" departSpeed="10" />
    <vehicle id="roundabout_3" type="standard_car" route="route3" depart="67" departLane="random" departSpeed="10" />
    <vehicle id="roundabout_4" type="standard_car" route="route1" depart="82" departLane="random" departSpeed="10" />
    <vehicle id="roundabout_5" type="standard_car" route="route4" depart="94" departLane="random" departSpeed="10" />
    <vehicle id="roundabout_6" type="standard_car" route="route4" depart="110" departLane="random" departSpeed="10" />
    <vehicle id="roundabout_7" type="standard_car" route="route1" depart="112" departLane="random" departSpeed="10" />
    <vehicle id="roundabout_8" type="standard_car" route="route4" depart="123" departLane="random" departSpeed="10" />
    <vehicle id="roundabout_9" type="standard_car" route="route3" depart="123" departLane="random" departSpeed="10" />
    <vehicle id="roundabout_10" type="standard_car" route="route3" depart="125" departLane="random" departSpeed="10" />
    <vehicle id="roundabout_11" type="standard_car" route="route1" depart="129" departLane="random" departSpeed="10" />
    <vehicle id="roundabout_12" type="standard_car" route="route3" depart="131" departLane="random" departSpeed="10" />
    <vehicle id="roundabout_13" type="standard_car" route="route6" depart="142" departLane="random" departSpeed="10" />
    <vehicle id="roundabout_14" type="standard_car" route="route4" depart="160" departLane="random" departSpeed="10" />
    <vehicle id="roundabout_15" type="standard_car" route="route4" depart="172" departLane="random" departSpeed="10" />
    <vehicle id="roundabout_16" type="standard_car" route="route7" depart="174" departLane="random" departSpeed="10" />
    <vehicle id="roundabout_17" type="standard_car" route="route4" depart="174" departLane="random" departSpeed="10" />
    <vehicle id="roundabout_18" type="standard_car" route="route2" depart="181" departLane="random" departSpeed="10" />
    <vehicle id="roundabout_19" type="standard_car" route="route3" depart="192" departLane="random" departSpeed="10" />
    <vehicle id="roundabout_20" type="standard_car" route="route4" depart="193" departLane="random" departSpeed="10" />
    <vehicle id="roundabout_21" type="standard_car" route="route4" depart="195" departLane="random" departSpeed="10" />
    <vehicle id="roundabout_22" type="standard_car" route="route2" depart="198" departLane="random" departSpeed="10" />
    <vehicle id="roundabout_23" type="standard_car" route="route1" depart="199" departLane="random" departSpeed="10" />
    <vehicle id="roundabout_24" type="standard_car" route="route4" depart="208" departLane="random" departSpeed="10" />
    <vehicle id="roundabout_25" type="standard_car" route="route4" depart="208" departLane="random" departSpeed="10" />
    <vehicle id="roundabout_26" type="standard_car" route="route3" depart="210" departLane="random" departSpeed="10" />
    <vehicle id="roundabout_27" type="standard_car" route="route3" depart="216" departLane="random" departSpeed="10" />
    <vehicle id="roundabout_28" type="standard_car" route="route3" depart="221" departLane="random" departSpeed="10" />
    <vehicle id="roundabout_29" type="standard_car" route="route3" depart="226" departLane="random" departSpeed="10" />
    <vehicle id="roundabout_30" type="standard_car" route="route6" depart="227" departLane="random" departSpeed="10" />
    <vehicle id="roundabout_31" type="standard_car" route="route3" depart="230" departLane="random" departSpeed="10" />
    <vehicle id="roundabout_32" type="standard_car" route="route4" depart="231" departLane="random" departSpeed="10" />
    <vehicle id="roundabout_33" type="standard_car" route="route2" depart="232" departLane="random" departSpeed="10" />
    <vehicle id="roundabout_34" type="standard_car" route="route3" depart="235" departLane="random" departSpeed="10" />
    <vehicle id="roundabout_35" type="standard_car" route="route7" depart="236" departLane="random" departSpeed="10" />
    <vehicle id="roundabout_36" type="standard_car" route="route3" depart="243" departLane="random" departSpeed="10" />
    <vehicle id="roundabout_37" type="standard_car" route="route4" depart="246" departLane="random" departSpeed="10" />
    <vehicle id="roundabout_38" type="standard_car" route="route1" depart="248" departLane="random" departSpeed="10" />
    <vehicle id="roundabout_39" type="standard_car" route="route8" depart="250" departLane="random" departSpeed="10" />
    <vehicle id="roundabout_40" type="standard_car" route="route4" depart="251" departLane="random" departSpeed="10" />
    <vehicle id="roundabout_41" type="standard_car" route="route4" depart="252" departLane="random" departSpeed="10" />
    <vehicle id="roundabout_42" type="standard_car" route="route3" depart="254" departLane="random" departSpeed="10" />
    <vehicle id="roundabout_43" type="standard_car" route="route2" depart="257" departLane="random" departSpeed="10" />
    <vehicle id="roundabout_44" type="standard_car" route="route3" depart="257" departLane="random" departSpeed="10" />
    <vehicle id="roundabout_45" type="standard_car" route="route3" depart="260" departLane="random" departSpeed="10" />
    <vehicle id="roundabout_46" type="standard_car" route="route2" depart="262" departLane="random" departSpeed="10" />
    <vehicle id="roundabout_47" type="standard_car" route="route4" depart="264" departLane="random" departSpeed="10" />
    <vehicle id="roundabout_48" type="standard_car" route="route2" depart="282" departLane="random" departSpeed="10" />
    <vehicle id="roundabout_49" type="standard_car" route="route8" depart="282" departLane="random" departSpeed="10" />
    <vehicle id="roundabout_50" type="standard_car" route="route3" depart="284" departLane="random" departSpeed="10" />
    <vehicle id="roundabout_51" type="standard_car" route="route3" depart="284" departLane="random" departSpeed="10" />
    <vehicle id="roundabout_52" type="standard_car" route="route1" depart="285" departLane="random" departSpeed="10" />
    <vehicle id="roundabout_53" type="standard_car" route="route4" depart="285" departLane="random" departSpeed="10" />
    <vehicle id="roundabout_54" type="standard_car" route="route4" depart="288" departLane="random" departSpeed="10" />
    <vehicle id="roundabout_55" type="standard_car" route="route3" depart="290" departLane="random" departSpeed="10" />
    <vehicle id="roundabout_56" type="standard_car" route="route3" depart="294" departLane="random" departSpeed="10" />
    <vehicle id="roundabout_57" type="standard_car" route="route8" depart="301" departLane="random" departSpeed="10" />
    <vehicle id="roundabout_58" type="standard_car" route="route4" depart="305" departLane="random" departSpeed="10" />
    <vehicle id="roundabout_59" type="standard_car" route="route3" depart="309" departLane="random" departSpeed="10" />
    <vehicle id="roundabout_60" type="standard_car" route="route3" depart="310" departLane="random" departSpeed="10" />
    <vehicle id="roundabout_61" type="standard_car" route="route1" depart="314" departLane="random" departSpeed="10" />
    <vehicle id="roundabout_62" type="standard_car" route="route5" depart="315" departLane="random" departSpeed="10" />
    <vehicle id="roundabout_63" type="standard_car" route="route3" depart="315" departLane="random" departSpeed="10" />
    <vehicle id="roundabout_64" type="standard_car" route="route3" depart="316" departLane="random" departSpeed="10" />
    <vehicle id="roundabout_65" type="standard_car" route="route5" depart="318" departLane="random" departSpeed="10" />
    <vehicle id="roundabout_66" type="standard_car" route="route6" depart="324" departLane="random" departSpeed="10" />
    <vehicle id="roundabout_67" type="standard_car" route="route1" depart="329" departLane="random" departSpeed="10" />
    <vehicle id="roundabout_68" type="standard_car" route="route3" depart="329" departLane="random" departSpeed="10" />
    <vehicle id="roundabout_69" type="standard_car" route="route2" depart="330" departLane="random" departSpeed="10" />
    <vehicle id="roundabout_70" type="standard_car" route="route3" depart="331" departLane="random" departSpeed="10" />
    <vehicle id="roundabout_71" type="standard_car" route="route4" depart="336" departLane="random" departSpeed="10" />
    <vehicle id="roundabout_72" type="standard_car" route="route2" depart="341" departLane="random" departSpeed="10" />
    <vehicle id="roundabout_73" type="standard_car" route="route1" depart="342" departLane="random" departSpeed="10" />
    <vehicle id="roundabout_74" type="standard_car" route="route2" depart="343" departLane="random" departSpeed="10" />
    <vehicle id="roundabout_75" type="standard_car" route="route3" depart="345" departLane="random" departSpeed="10" />
    <vehicle id="roundabout_76" type="standard_car" route="route4" depart="348" departLane="random" departSpeed="10" />
    <vehicle id="roundabout_77" type="standard_car" route="route2" depart="350" departLane="random" departSpeed="10" />
    <vehicle id="roundabout_78" type="standard_car" route="route8" depart="355" departLane="random" departSpeed="10" />
    <vehicle id="roundabout_79" type="standard_car" route="route4" depart="357" departLane="random" departSpeed="10" />
    <vehicle id="roundabout_80" type="standard_car" route="route3" depart="360" departLane="random" departSpeed="10" />
    <vehicle id="roundabout_81" type="standard_car" route="route3" depart="362" departLane="random" departSpeed="10" />
    <vehicle id="roundabout_82" type="standard_car" route="route2" depart="364" departLane="random" departSpeed="10" />
    <vehicle id="roundabout_83" type="standard_car" route="route4" depart="368" departLane="random" departSpeed="10" />
    <vehicle id="roundabout_84" type="standard_car" route="route1" depart="369" departLane="random" departSpeed="10" />
    <vehicle id="emergency_0" type="emergency" route="route3" depart="370" departLane="random" departSpeed="10" />
    <vehicle id="roundabout_85" type="standard_car" route="route2" depart="375" departLane="random" departSpeed="10" />
    <vehicle id="roundabout_86" type="standard_car" route="route4" depart="375" departLane="random" departSpeed="10" />
    <vehicle id="roundabout_87" type="standard_car" route="route1" depart="375" departLane="random" departSpeed="10" />
    <vehicle id="roundabout_88" type="standard_car" route="route3" depart="376" departLane="random" departSpeed="10" />
    <vehicle id="roundabout_89" type="standard_car" route="route8" depart="377" departLane="random" departSpeed="10" />
    <vehicle id="roundabout_90" type="standard_car" route="route1" depart="377" departLane="random" departSpeed="10" />
    <vehicle id="roundabout_91" type="standard_car" route="route2" depart="382" departLane="random" departSpeed="10" />
    <vehicle id="roundabout_92" type="standard_car" route="route4" depart="383" departLane="random" departSpeed="10" />
    <vehicle id="roundabout_93" type="standard_car" route="route7" depart="384" departLane="random" departSpeed="10" />
    <vehicle id="roundabout_94" type="standard_car" route="route3" depart="384" departLane="random" departSpeed="10" />
    <vehicle id="roundabout_95" type="standard_car" route="route2" depart="385" departLane="random" departSpeed="10" />
    <vehicle id="roundabout_96" type="standard_car" route="route1" depart="388" departLane="random" departSpeed="10" />
    <vehicle id="roundabout_97" type="standard_car" route="route2" depart="391" departLane="random" departSpeed="10" />
    <vehicle id="roundabout_98" type="standard_car" route="route3" depart="394" departLane="random" departSpeed="10" />
    <vehicle id="roundabout_99" type="standard_car" route="route3" depart="402" departLane="random" departSpeed="10" />
    <vehicle id="roundabout_100" type="standard_car" route="route2" depart="405" departLane="random" departSpeed="10" />
    <vehicle id="roundabout_101" type="standard_car" route="route3" depart="406" departLane="random" departSpeed="10" />
    <vehicle id="roundabout_102" type="standard_car" route="route5" depart="412" departLane="random" departSpeed="10" />
    <vehicle id="roundabout_103" type="standard_car" route="route2" depart="412" departLane="random" departSpeed="10" />
    <vehicle id="roundabout_104" type="standard_car" route="route3" depart="412" departLane="random" departSpeed="10" />
    <vehicle id="roundabout_105" type="standard_car" route="route1" depart="422" departLane="random" departSpeed="10" />
    <vehicle id="roundabout_106" type="standard_car" route="route2" depart="422" departLane="random" departSpeed="10" />
    <vehicle id="roundabout_107" type="standard_car" route="route2" depart="423" departLane="random" departSpeed="10" />
    <vehicle id="roundabout_108" type="standard_car" route="route1" depart="425" departLane="random" departSpeed="10" />
    <vehicle id="roundabout_109" type="standard_car" route="route4" depart="430" departLane="random" departSpeed="10" />
    <vehicle id="roundabout_110" type="standard_car" route="route5" depart="435" departLane="random" departSpeed="10" />
    <vehicle id="roundabout_111" type="standard_car" route="route4" depart="436" departLane="random" departSpeed="10" />
    <vehicle id="roundabout_112" type="standard_car" route="route6" depart="440" departLane="random" departSpeed="10" />
    <vehicle id="roundabout_113" type="standard_car" route="route4" depart="440" departLane="random" departSpeed="10" />
    <vehicle id="roundabout_114" type="standard_car" route="route2" depart="441" departLane="random" departSpeed="10" />
    <vehicle id="roundabout_115" type="standard_car" route="route4" depart="442" departLane="random" departSpeed="10" />
    <vehicle id="roundabout_116" type="standard_car" route="route2" depart="443" departLane="random" departSpeed="10" />
    <vehicle id="roundabout_117" type="standard_car" route="route7" depart="444" departLane="random" departSpeed="10" />
    <vehicle id="roundabout_118" type="standard_car" route="route4" depart="445" departLane="random" departSpeed="10" />
    <vehicle id="roundabout_119" type="standard_car" route="route3" depart="447" departLane="random" departSpeed="10" />
    <vehicle id="roundabout_120" type="standard_car" route="route8" depart="448" departLane="random" departSpeed="10" />
    <vehicle id="roundabout_121" type="standard_car" route="route4" depart="448" departLane="random" departSpeed="10" />
    <vehicle id="roundabout_122" type="standard_car" route="route4" depart="449" departLane="random" departSpeed="10" />
    <vehicle id="roundabout_123" type="standard_car" route="route4" depart="449" departLane="random" departSpeed="10" />
    <vehicle id="roundabout_124" type="standard_car" route="route3" depart="452" departLane="random" departSpeed="10" />
    <vehicle id="roundabout_125" type="standard_car" route="route2" depart="458" departLane="random" departSpeed="10" />
    <vehicle id="roundabout_126" type="standard_car" route="route2" depart="458" departLane="random" departSpeed="10" />
    <vehicle id="roundabout_127" type="standard_car" route="route1" depart="458" departLane="random" departSpeed="10" />
    <vehicle id="roundabout_128" type="standard_car" route="route7" depart="460" departLane="random" departSpeed="10" />
    <vehicle id="roundabout_129" type="standard_car" route="route4" depart="461" departLane="random" departSpeed="10" />
    <vehicle id="roundabout_130" type="standard_car" route="route3" depart="463" departLane="random" departSpeed="10" />
    <vehicle id="roundabout_131" type="standard_car" route="route4" depart="463" departLane="random" departSpeed="10" />
    <vehicle id="roundabout_132" type="standard_car" route="route4" depart="467" departLane="random" departSpeed="10" />
    <vehicle id="roundabout_133" type="standard_car" route="route1" depart="468" departLane="random" departSpeed="10" />
    <vehicle id="roundabout_134" type="standard_car" route="route3" depart="469" departLane="random" departSpeed="10" />
    <vehicle id="roundabout_135" type="standard_car" route="route2" depart="471" departLane="random" departSpeed="10" />
    <vehicle id="roundabout_136" type="standard_car" route="route4" depart="471" departLane="random" departSpeed="10" />
    <vehicle id="roundabout_137" type="standard_car" route="route4" depart="473" departLane="random" departSpeed="10" />
    <vehicle id="roundabout_138" type="standard_car" route="route4" depart="475" departLane="random" departSpeed="10" />
    <vehicle id="roundabout_139" type="standard_car" route="route4" depart="478" departLane="random" departSpeed="10" />
    <vehicle id="roundabout_140" type="standard_car" route="route4" depart="478" departLane="random" departSpeed="10" />
    <vehicle id="roundabout_141" type="standard_car" route="route3" depart="479" departLane="random" departSpeed="10" />
    <vehicle id="roundabout_142" type="standard_car" route="route1" depart="480" departLane="random" departSpeed="10" />
    <vehicle id="roundabout_143" type="standard_car" route="route7" depart="481" departLane="random" departSpeed="10" />
    <vehicle id="roundabout_144" type="standard_car" route="route1" depart="482" departLane="random" departSpeed="10" />
    <vehicle id="roundabout_145" type="standard_car" route="route1" depart="482" departLane="random" departSpeed="10" />
    <vehicle id="roundabout_146" type="standard_car" route="route2" depart="485" departLane="random" departSpeed="10" />
    <vehicle id="roundabout_147" type="standard_car" route="route1" depart="488" departLane="random" departSpeed="10" />
    <vehicle id="roundabout_148" type="standard_car" route="route4" depart="489" departLane="random" departSpeed="10" />
    <vehicle id="roundabout_149" type="standard_car" route="route4" depart="494" departLane="random" departSpeed="10" />
    <vehicle id="roundabout_150" type="standard_car" route="route4" depart="498" departLane="random" departSpeed="10" />
    <vehicle id="roundabout_151" type="standard_car" route="route1" depart="500" departLane="random" departSpeed="10" />
    <vehicle id="roundabout_152" type="standard_car" route="route8" depart="504" departLane="random" departSpeed="10" />
    <vehicle id="roundabout_153" type="standard_car" route="route8" depart="504" departLane="random" departSpeed="10" />
    <vehicle id="roundabout_154" type="standard_car" route="route2" depart="505" departLane="random" departSpeed="10" />
    <vehicle id="roundabout_155" type="standard_car" route="route4" depart="508" departLane="random" departSpeed="10" />
    <vehicle id="roundabout_156" type="standard_car" route="route2" depart="509" departLane="random" departSpeed="10" />
    <vehicle id="roundabout_157" type="standard_car" route="route3" depart="513" departLane="random" departSpeed="10" />
    <vehicle id="roundabout_158" type="standard_car" route="route3" depart="514" departLane="random" departSpeed="10" />
    <vehicle id="roundabout_159" type="standard_car" route="route1" depart="518" departLane="random" departSpeed="10" />
    <vehicle id="roundabout_160" type="standard_car" route="route8" depart="521" departLane="random" departSpeed="10" />
    <vehicle id="roundabout_161" type="standard_car" route="route4" depart="522" departLane="random" departSpeed="10" />
    <vehicle id="roundabout_162" type="standard_car" route="route3" depart="523" departLane="random" departSpeed="10" />
    <vehicle id="roundabout_163" type="standard_car" route="route1" depart="523" departLane="random" departSpeed="10" />
    <vehicle id="roundabout_164" type="standard_car" route="route2" depart="524" departLane="random" departSpeed="10" />
    <vehicle id="roundabout_165" type="standard_car" route="route1" depart="531" departLane="random" departSpeed="10" />
    <vehicle id="roundabout_166" type="standard_car" route="route1" depart="531" departLane="random" departSpeed="10" />
    <vehicle id="roundabout_167" type="standard_car" route="route1" depart="532" departLane="random" departSpeed="10" />
    <vehicle id="roundabout_168" type="standard_car" route="route2" depart="532" departLane="random" departSpeed="10" />
    <vehicle id="roundabout_169" type="standard_car" route="route4" depart="534" departLane="random" departSpeed="10" />
    <vehicle id="roundabout_170" type="standard_car" route="route8" depart="538" departLane="random" departSpeed="10" />
    <vehicle id="roundabout_171" type="standard_car" route="route3" depart="539" departLane="random" departSpeed="10" />
    <vehicle id="roundabout_172" type="standard_car" route="route3" depart="543" departLane="random" departSpeed="10" />
    <vehicle id="roundabout_173" type="standard_car" route="route1" depart="551" departLane="random" departSpeed="10" />
    <vehicle id="roundabout_174" type="standard_car" route="route2" depart="552" departLane="random" departSpeed="10" />
    <vehicle id="roundabout_175" type="standard_car" route="route2" depart="556" departLane="random" departSpeed="10" />
    <vehicle id="roundabout_176" type="standard_car" route="route4" depart="561" departLane="random" departSpeed="10" />
    <vehicle id="roundabout_177" type="standard_car" route="route3" depart="562" departLane="random" departSpeed="10" />
    <vehicle id="roundabout_178" type="standard_car" route="route5" depart="565" departLane="random" departSpeed="10" />
    <vehicle id="roundabout_179" type="standard_car" route="route1" depart="566" departLane="random" departSpeed="10" />
    <vehicle id="roundabout_180" type="standard_car" route="route2" depart="572" departLane="random" departSpeed="10" />
    <vehicle id="roundabout_181" type="standard_car" route="route2" depart="573" departLane="random" departSpeed="10" />
    <vehicle id="roundabout_182" type="standard_car" route="route2" depart="574" departLane="random" departSpeed="10" />
    <vehicle id="roundabout_183" type="standard_car" route="route3" depart="575" departLane="random" departSpeed="10" />
    <vehicle id="roundabout_184" type="standard_car" route="route2" depart="576" departLane="random" departSpeed="10" />
    <vehicle id="roundabout_185" type="standard_car" route="route4" depart="576" departLane="random" departSpeed="10" />
    <vehicle id="roundabout_186" type="standard_car" route="route5" depart="577" departLane="random" departSpeed="10" />
    <vehicle id="roundabout_187" type="standard_car" route="route1" depart="577" departLane="random" departSpeed="10" />
    <vehicle id="roundabout_188" type="standard_car" route="route6" depart="578" departLane="random" departSpeed="10" />
    <vehicle id="roundabout_189" type="standard_car" route="route7" depart="580" departLane="random" departSpeed="10" />
    <vehicle id="roundabout_190" type="standard_car" route="route4" depart="580" departLane="random" departSpeed="10" />
    <vehicle id="roundabout_191" type="standard_car" route="route4" depart="583" departLane="random" departSpeed="10" />
    <vehicle id="roundabout_192" type="standard_car" route="route3" depart="583" departLane="random" departSpeed="10" />
    <vehicle id="roundabout_193" type="standard_car" route="route7" depart="584" departLane="random" departSpeed="10" />
    <vehicle id="roundabout_194" type="standard_car" route="route3" depart="585" departLane="random" departSpeed="10" />
    <vehicle id="roundabout_195" type="standard_car" route="route4" depart="585" departLane="random" departSpeed="10" />
    <vehicle id="roundabout_196" type="standard_car" route="route4" depart="585" departLane="random" departSpeed="10" />
    <vehicle id="roundabout_197" type="standard_car" route="route4" depart="585" departLane="random" departSpeed="10" />
    <vehicle id="roundabout_198" type="standard_car" route="route3" depart="588" departLane="random" departSpeed="10" />
    <vehicle id="roundabout_199" type="standard_car" route="route1" depart="588" departLane="random" departSpeed="10" />
    <vehicle id="roundabout_200" type="standard_car" route="route1" depart="590" departLane="random" departSpeed="10" />
    <vehicle id="roundabout_201" type="standard_car" route="route2" depart="590" departLane="random" departSpeed="10" />
    <vehicle id="roundabout_202" type="standard_car" route="route1" depart="591" departLane="random" departSpeed="10" />
    <vehicle id="roundabout_203" type="standard_car" route="route1" depart="591" departLane="random" departSpeed="10" />
    <vehicle id="roundabout_204" type="standard_car" route="route5" depart="592" departLane="random" departSpeed="10" />
    <vehicle id="roundabout_205" type="standard_car" route="route4" depart="592" departLane="random" departSpeed="10" />
    <vehicle id="roundabout_206" type="standard_car" route="route2" depart="594" departLane="random" departSpeed="10" />
    <vehicle id="roundabout_207" type="standard_car" route="route8" depart="595" departLane="random" departSpeed="10" />
    <vehicle id="roundabout_208" type="standard_car" route="route1" depart="596" departLane="random" departSpeed="10" />
    <vehicle id="roundabout_209" type="standard_car" route="route1" depart="596" departLane="random" departSpeed="10" />
    <vehicle id="roundabout_210" type="standard_car" route="route1" depart="598" departLane="random" departSpeed="10" />
    <vehicle id="roundabout_211" type="standard_car" route="route5" depart="599" departLane="random" departSpeed="10" />
    <vehicle id="roundabout_212" type="standard_car" route="route2" depart="599" departLane="random" departSpeed="10" />
    <vehicle id="roundabout_213" type="standard_car" route="route2" depart="600" departLane="random" departSpeed="10" />
    <vehicle id="roundabout_214" type="standard_car" route="route4" depart="602" departLane="random" departSpeed="10" />
    <vehicle id="roundabout_215" type="standard_car" route="route8" depart="604" departLane="random" departSpeed="10" />
    <vehicle id="roundabout_216" type="standard_car" route="route3" depart="605" departLane="random" departSpeed="10" />
    <vehicle id="roundabout_217" type="standard_car" route="route1" depart="606" departLane="random" departSpeed="10" />
    <vehicle id="roundabout_218" type="standard_car" route="route1" depart="606" departLane="random" departSpeed="10" />
    <vehicle id="roundabout_219" type="standard_car" route="route3" depart="606" departLane="random" departSpeed="10" />
    <vehicle id="roundabout_220" type="standard_car" route="route4" depart="607" departLane="random" departSpeed="10" />
    <vehicle id="roundabout_221" type="standard_car" route="route5" depart="607" departLane="random" departSpeed="10" />
    <vehicle id="roundabout_222" type="standard_car" route="route2" depart="609" departLane="random" departSpeed="10" />
    <vehicle id="roundabout_223" type="standard_car" route="route1" depart="611" departLane="random" departSpeed="10" />
    <vehicle id="roundabout_224" type="standard_car" route="route3" depart="613" departLane="random" departSpeed="10" />
    <vehicle id="roundabout_225" type="standard_car" route="route2" depart="614" departLane="random" departSpeed="10" />
    <vehicle id="roundabout_226" type="standard_car" route="route8" depart="614" departLane="random" departSpeed="10" />
    <vehicle id="roundabout_227" type="standard_car" route="route3" depart="616" departLane="random" departSpeed="10" />
    <vehicle id="roundabout_228" type="standard_car" route="route3" depart="616" departLane="random" departSpeed="10" />
    <vehicle id="roundabout_229" type="standard_car" route="route8" depart="616" departLane="random" departSpeed="10" />
    <vehicle id="roundabout_230" type="standard_car" route="route8" depart="619" departLane="random" departSpeed="10" />
    <vehicle id="roundabout_231" type="standard_car" route="route3" depart="621" departLane="random" departSpeed="10" />
    <vehicle id="roundabout_232" type="standard_car" route="route1" depart="621" departLane="random" departSpeed="10" />
    <vehicle id="roundabout_233" type="standard_car" route="route8" depart="621" departLane="random" departSpeed="10" />
    <vehicle id="roundabout_234" type="standard_car" route="route4" depart="622" departLane="random" departSpeed="10" />
    <vehicle id="roundabout_235" type="standard_car" route="route3" depart="623" departLane="random" departSpeed="10" />
    <vehicle id="roundabout_236" type="standard_car" route="route7" depart="626" departLane="random" departSpeed="10" />
    <vehicle id="roundabout_237" type="standard_car" route="route4" depart="631" departLane="random" departSpeed="10" />
    <vehicle id="roundabout_238" type="standard_car" route="route6" depart="631" departLane="random" departSpeed="10" />
    <vehicle id="roundabout_239" type="standard_car" route="route7" depart="631" departLane="random" departSpeed="10" />
    <vehicle id="roundabout_240" type="standard_car" route="route2" depart="631" departLane="random" departSpeed="10" />
    <vehicle id="roundabout_241" type="standard_car" route="route6" depart="632" departLane="random" departSpeed="10" />