<routes>
    <!-- Define emergency vehicle type -->
    <vType id="emergency" accel="3.0" decel="6.0" color="1,0,0"
           maxSpeed="20" sigma="0.5" emergency="true" />
    <!-- Define standard vehicle type -->
    <vType id="standard_car" accel="1.0" decel="4.5" length="5.0"
           minGap="2.5" maxSpeed="25" sigma="0.5" />

    <route id="route1" edges="e1 r1 e2_out"/>
    <route id="route2" edges="e2 r2 e3_out"/>
    <route id="route3" edges="e3 r3 e4_out"/>
    <route id="route4" edges="e4 r4 e1_out"/>
    <route id="route5" edges="e1 r1 r2 e3_out"/>
    <route id="route6" edges="e2 r2 r3 e4_out"/>
    <route id="route7" edges="e3 r3 r4 e1_out"/>
    <route id="route8" edges="e4 r4 r1 e2_out"/>
    <vehicle id="roundabout_0" type="standard_car" route="route2" depart="184" departLane="random" departSpeed="10" />
    <vehicle id="roundabout_1" type="standard_car" route="route2" depart="221" departLane="random" departSpeed="10" />
    <vehicle id="roundabout_2" type="standard_car" route="route2" depart="239" departLane="random" departSpeed="10" />
    <vehicle id="emergency_0" type="emergency" route="route6" depart="283" departLane="random" departSpeed="10" />
    <vehicle id="roundabout_3" type="standard_car" route="route4" depart="300" departLane="random" departSpeed="10" />
    <vehicle id="roundabout_4" type="standard_car" route="route2" depart="311" departLane="random" departSpeed="10" />
    <vehicle id="roundabout_5" type="standard_car" route="route1" depart="321" departLane="random" departSpeed="10" />
    <vehicle id="roundabout_6" type="standard_car" route="route7" depart="375" departLane="random" departSpeed="10" />
    <vehicle id="roundabout_7" type="standard_car" route="route2" depart="383" departLane="random" departSpeed="10" />
    <vehicle id="roundabout_8" type="standard_car" route="route3" depart="409" departLane="random" departSpeed="10" />
    <vehicle id="roundabout_9" type="standard_car" route="route3" depart="415" departLane="random" departSpeed="10" />
    <vehicle id="roundabout_10" type="standard_car" route="route4" depart="424" departLane="random" departSpeed="10" />
    <vehicle id="roundabout_11" type="standard_car" route="route1" depart="434" departLane="random" departSpeed="10" />
    <vehicle id="roundabout_12" type="standard_car" route="route8" depart="435" departLane="random" departSpeed="10" />
    <vehicle id="emergency_1" type="emergency" route="route3" depart="438" departLane="random" departSpeed="10" />
    <vehicle id="roundabout_13" type="standard_car" route="route3" depart="450" departLane="random" departSpeed="10" />
    <vehicle id="roundabout_14" type="standard_car" route="route4" depart="460" departLane="random" departSpeed="10" />
    <vehicle id="roundabout_15" type="standard_car" route="route2" depart="466" departLane="random" departSpeed="10" />
    <vehicle id="roundabout_16" type="standard_car" route="route3" depart="485" departLane="random" departSpeed="10" />
    <vehicle id="roundabout_17" type="standard_car" route="route1" depart="486" departLane="random" departSpeed="10" />
    <vehicle id="roundabout_18" type="standard_car" route="route6" depart="504" departLane="random" departSpeed="10" />
    <vehicle id="roundabout_19" type="standard_car" route="route2" depart="508" departLane="random" departSpeed="10" />
    <vehicle id="roundabout_20" type="standard_car" route="route4" depart="515" departLane="random" departSpeed="10" />
    <vehicle id="roundabout_21" type="standard_car" route="route4" depart="527" departLane="random" departSpeed="10" />
    <vehicle id="roundabout_22" type="standard_car" route="route4" depart="527" departLane="random" departSpeed="10" />
    <vehicle id="roundabout_23" type="standard_car" route="route2" depart="529" departLane="random" departSpeed="10" />
    <vehicle id="roundabout_24" type="standard_car" route="route4" depart="530" departLane="random" departSpeed="10" />
    <vehicle id="roundabout_25" type="standard_car" route="route1" depart="563" departLane="random" departSpeed="10" />
    <vehicle id="roundabout_26" type="standard_car" route="route4" depart="577" departLane="random" departSpeed="10" />
    <vehicle id="roundabout_27" type="standard_car" route="route4" depart="579" departLane="random" departSpeed="10" />
    <vehicle id="roundabout_28" type="standard_car" route="route5" depart="583" departLane="random" departSpeed="10" />
    <vehicle id="roundabout_29" type="standard_car" route="route1" depart="604" departLane="random" departSpeed="10" />
    <vehicle id="roundabout_30" type="standard_car" route="route2" depart="615" departLane="random" departSpeed="10" />
    <vehicle id="roundabout_31" type="standard_car" route="route5" depart="625" departLane="random" departSpeed="10" />
    <vehicle id="roundabout_32" type="standard_car" route="route3" depart="634" departLane="random" departSpeed="10" />
    <vehicle id="roundabout_33" type="standard_car" route="route4" depart="654" departLane="random" departSpeed="10" />
    <vehicle id="roundabout_34" type="standard_car" route="route3" depart="657" departLane="random" departSpeed="10" />
    <vehicle id="roundabout_35" type="standard_car" route="route3" depart="661" departLane="random" departSpeed="10" />
    <vehicle id="roundabout_36" type="standard_car" route="route3" depart="673" departLane="random" departSpeed="10" />
    <vehicle id="roundabout_37" type="standard_car" route="route3" depart="687" departLane="random" departSpeed="10" />
    <vehicle id="roundabout_38" type="standard_car" route="route2" depart="694" departLane="random" departSpeed="10" />
    <vehicle id="roundabout_39" type="standard_car" route="route6" depart="705" departLane="random" departSpeed="10" />
    <vehicle id="roundabout_40" type="standard_car" route="route1" depart="728" departLane="random" departSpeed="10" />
    <vehicle id="roundabout_41" type="standard_car" route="route8" depart="731" departLane="random" departSpeed="10" />
    <vehicle id="roundabout_42" type="standard_car" route="route5" depart="757" departLane="random" departSpeed="10" />
    <vehicle id="roundabout_43" type="standard_car" route="route3" depart="762" departLane="random" departSpeed="10" />
    <vehicle id="roundabout_44" type="standard_car" route="route1" depart="764" departLane="random" departSpeed="10" />
    <vehicle id="roundabout_45" type="standard_car" route="route8" depart="784" departLane="random" departSpeed="10" />
    <vehicle id="roundabout_46" type="standard_car" route="route5" depart="801" departLane="random" departSpeed="10" />
    <vehicle id="roundabout_47" type="standard_car" route="route3" depart="807" departLane="random" departSpeed="10" />
    <vehicle id="roundabout_48" type="standard_car" route="route1" depart="808" departLane="random" departSpeed="10" />
    <vehicle id="roundabout_49" type="standard_car" route="route8" depart="811" departLane="random" departSpeed="10" />
    <vehicle id="roundabout_50" type="standard_car" route="route4" depart="823" departLane="random" departSpeed="10" />
    <vehicle id="roundabout_51" type="standard_car" route="route4" depart="844" departLane="random" departSpeed="10" />
    <vehicle id="roundabout_52" type="standard_car" route="route2" depart="864" departLane="random" departSpeed="10" />
    <vehicle id="roundabout_53" type="standard_car" route="route3" depart="868" departLane="random" departSpeed="10" />
    <vehicle id="roundabout_54" type="standard_car" route="route2" depart="887" departLane="random" departSpeed="10" />
    <vehicle id="roundabout_55" type="standard_car" route="route5" depart="888" departLane="random" departSpeed="10" />
    <vehicle id="roundabout_56" type="standard_car" route="route2" depart="929" departLane="random" departSpeed="10" />
    <vehicle id="roundabout_57" type="standard_car" route="route1" depart="930" departLane="random" departSpeed="10" />
    <vehicle id="roundabout_58" type="standard_car" route="route2" depart="952" departLane="random" departSpeed="10" />
    <vehicle id="roundabout_59" type="standard_car" route="route3" depart="959" departLane="random" departSpeed="10" />
    <vehicle id="roundabout_60" type="standard_car" route="route8" depart="965" departLane="random" departSpeed="10" />
    <vehicle id="roundabout_61" type="standard_car" route="route3" depart="970" departLane="random" departSpeed="10" />
    <vehicle id="roundabout_62" type="standard_car" route="route1" depart="987" departLane="random" departSpeed="10" />
    <vehicle id="roundabout_63" type="standard_car" route="route4" depart="1003" departLane="random" departSpeed="10" />
    <vehicle id="roundabout_64" type="standard_car" route="route8" depart="1006" departLane="random" departSpeed="10" />
    <vehicle id="roundabout_65" type="standard_car" route="route1" depart="1007" departLane="random" departSpeed="10" />
    <vehicle id="roundabout_66" type="standard_car" route="route3" depart="1016" departLane="random" departSpeed="10" />
    <vehicle id="roundabout_67" type="standard_car" route="route7" depart="1047" departLane="random" departSpeed="10" />
    <vehicle id="roundabout_68" type="standard_car" route="route2" depart="1048" departLane="random" departSpeed="10" />
    <vehicle id="roundabout_69" type="standard_car" route="route2" depart="1082" departLane="random" departSpeed="10" />
    <vehicle id="roundabout_70" type="standard_car" route="route4" depart="1101" departLane="random" departSpeed="10" />
    <vehicle id="roundabout_71" type="standard_car" route="route3" depart="1102" departLane="random" departSpeed="10" />
    <vehicle id="roundabout_72" type="standard_car" route="route1" depart="1104" departLane="random" departSpeed="10" />
    <vehicle id="roundabout_73" type="standard_car" route="route2" depart="1142" departLane="random" departSpeed="10" />
    <vehicle id="roundabout_74" type="standard_car" route="route3" depart="1142" departLane="random" departSpeed="10" />
    <vehicle id="roundabout_75" type="standard_car" route="route4" depart="1146" departLane="random" departSpeed="10" />
    <vehicle id="roundabout_76" type="standard_car" route="route1" depart="1169" departLane="random" departSpeed="10" />
    <vehicle id="roundabout_77" type="standard_car" route="route2" depart="1174" departLane="random" departSpeed="10" />
    <vehicle id="roundabout_78" type="standard_car" route="route1" depart="1176" departLane="random" departSpeed="10" />
    <vehicle id="roundabout_79" type="standard_car" route="route3" depart="1177" departLane="random" departSpeed="10" />
    <vehicle id="roundabout_80" type="standard_car" route="route3" depart="1178" departLane="random" departSpeed="10" />
    <vehicle id="roundabout_81" type="standard_car" route="route3" depart="1178" departLane="random" departSpeed="10" />
    <vehicle id="roundabout_82" type="standard_car" route="route2" depart="1180" departLane="random" departSpeed="10" />
    <vehicle id="roundabout_83" type="standard_car" route="route5" depart="1205" departLane="random" departSpeed="10" />
    <vehicle id="roundabout_84" type="standard_car" route="route7" depart="1206" departLane="random" departSpeed="10" />
    <vehicle id="roundabout_85" type="standard_car" route="route7" depart="1212" departLane="random" departSpeed="10" />
    <vehicle id="roundabout_86" type="standard_car" route="route2" depart="1213" departLane="random" departSpeed="10" />
    <vehicle id="roundabout_87" type="standard_car" route="route3" depart="1230" departLane="random" departSpeed="10" />
    <vehicle id="roundabout_88" type="standard_car" route="route6" depart="1244" departLane="random" departSpeed="10" />
    <vehicle id="roundabout_89" type="standard_car" route="route4" depart="1248" departLane="random" departSpeed="10" />
    <vehicle id="roundabout_90" type="standard_car" route="route6" depart="1259" departLane="random" departSpeed="10" />
    <vehicle id="roundabout_91" type="standard_car" route="route4" depart="1261" departLane="random" departSpeed="10" />
    <vehicle id="roundabout_92" type="standard_car" route="route1" depart="1287" departLane="random" departSpeed="10" />
    <vehicle id="roundabout_93" type="standard_car" route="route2" depart="1288" departLane="random" departSpeed="10" />
    <vehicle id="roundabout_94" type="standard_car" route="route2" depart="1311" departLane="random" departSpeed="10" />
    <vehicle id="roundabout_95" type="standard_car" route="route3" depart="1333" departLane="random" departSpeed="10" />
    <vehicle id="roundabout_96" type="standard_car" route="route4" depart="1339" departLane="random" departSpeed="10" />
    <vehicle id="roundabout_97" type="standard_car" route="route5" depart="1371" departLane="random" departSpeed="10" />
    <vehicle id="roundabout_98" type="standard_car" route="route3" depart="1375" departLane="random" departSpeed="10" />
    <vehicle id="roundabout_99" type="standard_car" route="route1" depart="1380" departLane="random" departSpeed="10" />
    <vehicle id="roundabout_100" type="standard_car" route="route5" depart="1389" departLane="random" departSpeed="10" />
    <vehicle id="roundabout_101" type="standard_car" route="route4" depart="1392" departLane="random" departSpeed="10" />
    <vehicle id="roundabout_102" type="standard_car" route="route4" depart="1439" departLane="random" departSpeed="10" />
    <vehicle id="roundabout_103" type="standard_car" route="route4" depart="1449" departLane="random" departSpeed="10" />
    <vehicle id="roundabout_104" type="standard_car" route="route1" depart="1450" departLane="random" departSpeed="10" />
    <vehicle id="roundabout_105" type="standard_car" route="route3" depart="1469" departLane="random" departSpeed="10" />
    <vehicle id="roundabout_106" type="standard_car" route="route4" depart="1488" departLane="random" departSpeed="10" />
    <vehicle id="roundabout_107" type="standard_car" route="route3" depart="1498" departLane="random" departSpeed="10" />
    <vehicle id="roundabout_108" type="standard_car" route="route1" depart="1525" departLane="random" departSpeed="10" />
    <vehicle id="roundabout_109" type="standard_car" route="route8" depart="1544" departLane="random" departSpeed="10" />
    <vehicle id="roundabout_110" type="standard_car" route="route1" depart="1551" departLane="random" departSpeed="10" />
    <vehicle id="roundabout_111" type="standard_car" route="route1" depart="1554" departLane="random" departSpeed="10" />
    <vehicle id="roundabout_112" type="standard_car" route="route7" depart="1570" departLane="random" departSpeed="10" />
    <vehicle id="roundabout_113" type="standard_car" route="route4" depart="1590" departLane="random" departSpeed="10" />
    <vehicle id="roundabout_114" type="standard_car" route="route1" depart="1599" departLane="random" departSpeed="10" />
    <vehicle id="roundabout_115" type="standard_car" route="route3" depart="1606" departLane="random" departSpeed="10" />
    <vehicle id="roundabout_116" type="standard_car" route="route8" depart="1613" departLane="random" departSpeed="10" />
    <vehicle id="roundabout_117" type="standard_car" route="route4" depart="1617" departLane="random" departSpeed="10" />
    <vehicle id="roundabout_118" type="standard_car" route="route4" depart="1625" departLane="random" departSpeed="10" />
    <vehicle id="roundabout_119" type="standard_car" route="route2" depart="1630" departLane="random" departSpeed="10" />
    <vehicle id="roundabout_120" type="standard_car" route="route1" depart="1630" departLane="random" departSpeed="10" />
    <vehicle id="roundabout_121" type="standard_car" route="route1" depart="1686" departLane="random" departSpeed="10" />
    <vehicle id="roundabout_122" type="standard_car" route="route3" depart="1701" departLane="random" departSpeed="10" />
    <vehicle id="roundabout_123" type="standard_car" route="route6" depart="1708" departLane="random" departSpeed="10" />
    <vehicle id="roundabout_124" type="standard_car" route="route4" depart="1711" departLane="random" departSpeed="10" />
    <vehicle id="roundabout_125" type="standard_car" route="route4" depart="1717" departLane="random" departSpeed="10" />
    <vehicle id="roundabout_126" type="standard_car" route="route1" depart="1722" departLane="random" departSpeed="10" />
    <vehicle id="roundabout_127" type="standard_car" route="route2" depart="1736" departLane="random" departSpeed="10" />
    <vehicle id="roundabout_128" type="standard_car" route="route6" depart="1742" departLane="random" departSpeed="10" />
    <vehicle id="roundabout_129" type="standard_car" route="route1" depart="1755" departLane="random" departSpeed="10" />
    <vehicle id="roundabout_130" type="standard_car" route="route7" depart="1759" departLane="random" departSpeed="10" />
    <vehicle id="roundabout_131" type="standard_car" route="route3" depart="1797" departLane="random" departSpeed="10" />
    <vehicle id="roundabout_132" type="standard_car" route="route4" depart="1799" departLane="random" departSpeed="10" />
    <vehicle id="roundabout_133" type="standard_car" route="route2" depart="1809" departLane="random" departSpeed="10" />
    <vehicle id="roundabout_134" type="standard_car" route="route1" depart="1822" departLane="random" departSpeed="10" />
    <vehicle id="roundabout_135" type="standard_car" route="route4" depart="1827" departLane="random" departSpeed="10" />
    <vehicle id="roundabout_136" type="standard_car" route="route4" depart="1851" departLane="random" departSpeed="10" />
    <vehicle id="roundabout_137" type="standard_car" route="route1" depart="1888" departLane="random" departSpeed="10" />
    <vehicle id="roundabout_138" type="standard_car" route="route5" depart="1895" departLane="random" departSpeed="10" />
    <vehicle id="roundabout_139" type="standard_car" route="route5" depart="1900" departLane="random" departSpeed="10" />
    <vehicle id="roundabout_140" type="standard_car" route="route1" depart="1902" departLane="random" departSpeed="10" />
    <vehicle id="roundabout_141" type="standard_car" route="route1" depart="1910" departLane="random" departSpeed="10" />
    <vehicle id="roundabout_142" type="standard_car" route="route5" depart="1944" departLane="random" departSpeed="10" />
    <vehicle id="roundabout_143" type="standard_car" route="route2" depart="1948" departLane="random" departSpeed="10" />
    <vehicle id="roundabout_144" type="standard_car" route="route4" depart="2001" departLane="random" departSpeed="10" />
    <vehicle id="roundabout_145" type="standard_car" route="route3" depart="2005" departLane="random" departSpeed="10" />
    <vehicle id="roundabout_146" type="standard_car" route="route1" depart="2006" departLane="random" departSpeed="10" />
    <vehicle id="roundabout_147" type="standard_car" route="route4" depart="2008" departLane="random" departSpeed="10" />
    <vehicle id="roundabout_148" type="standard_car" route="route3" depart="2019" departLane="random" departSpeed="10" />
    <vehicle id="roundabout_149" type="standard_car" route="route6" depart="2055" departLane="random" departSpeed="10" />
    <vehicle id="roundabout_150" type="standard_car" route="route3" depart="2092" departLane="random" departSpeed="10" />
    <vehicle id="roundabout_151" type="standard_car" route="route6" depart="2104" departLane="random" departSpeed="10" />
    <vehicle id="roundabout_152" type="standard_car" route="route3" depart="2120" departLane="random" departSpeed="10" />
    <vehicle id="roundabout_153" type="standard_car" route="route1" depart="2124" departLane="random" departSpeed="10" />
    <vehicle id="roundabout_154" type="standard_car" route="route4" depart="2143" departLane="random" departSpeed="10" />
    <vehicle id="roundabout_155" type="standard_car" route="route4" depart="2145" departLane="random" departSpeed="10" />
    <vehicle id="roundabout_156" type="standard_car" route="route5" depart="2151" departLane="random" departSpeed="10" />
    <vehicle id="roundabout_157" type="standard_car" route="route4" depart="2154" departLane="random" departSpeed="10" />
    <vehicle id="roundabout_158" type="standard_car" route="route3" depart="2206" departLane="random" departSpeed="10" />
    <vehicle id="roundabout_159" type="standard_car" route="route2" depart="2229" departLane="random" departSpeed="10" />
    <vehicle id="roundabout_160" type="standard_car" route="route4" depart="2269" departLane="random" departSpeed="10" />
    <vehicle id="roundabout_161" type="standard_car" route="route4" depart="2307" departLane="random" departSpeed="10" />
    <vehicle id="roundabout_162" type="standard_car" route="route2" depart="2344" departLane="random" departSpeed="10" />
    <vehicle id="roundabout_163" type="standard_car" route="route5" depart="2360" departLane="random" departSpeed="10" />
    <vehicle id="roundabout_164" type="standard_car" route="route4" depart="2379" departLane="random" departSpeed="10" />
    <vehicle id="roundabout_165" type="standard_car" route="route4" depart="2408" departLane="random" departSpeed="10" />
    <vehicle id="roundabout_166" type="standard_car" route="route2" depart="2408" departLane="random" departSpeed="10" />
    <vehicle id="roundabout_167" type="standard_car" route="route5" depart="2414" departLane="random" departSpeed="10" />
    <vehicle id="roundabout_168" type="standard_car" route="route4" depart="2417" departLane="random" departSpeed="10" />
    <vehicle id="roundabout_169" type="standard_car" route="route2" depart="2466" departLane="random" departSpeed="10" />
    <vehicle id="roundabout_170" type="standard_car" route="route2" depart="2466" departLane="random" departSpeed="10" />
    <vehicle id="roundabout_171" type="standard_car" route="route7" depart="2508" departLane="random" departSpeed="10" />
    <vehicle id="roundabout_172" type="standard_car" route="route4" depart="2512" departLane="random" departSpeed="10" />
    <vehicle id="roundabout_173" type="standard_car" route="route2" depart="2518" departLane="random" departSpeed="10" />
    <vehicle id="roundabout_174" type="standard_car" route="route3" depart="2520" departLane="random" departSpeed="10" />
    <vehicle id="roundabout_175" type="standard_car" route="route8" depart="2531" departLane="random" departSpeed="10" />
    <vehicle id="roundabout_176" type="standard_car" route="route6" depart="2542" departLane="random" departSpeed="10" />
    <vehicle id="roundabout_177" type="standard_car" route="route4" depart="2544" departLane="random" departSpeed="10" />
    <vehicle id="roundabout_178" type="standard_car" route="route2" depart="2578" departLane="random" departSpeed="10" />
    <vehicle id="roundabout_179" type="standard_car" route="route1" depart="2607" departLane="random" departSpeed="10" />
    <vehicle id="roundabout_180" type="standard_car" route="route4" depart="2691" departLane="random" departSpeed="10" />
    <vehicle id="roundabout_181" type="standard_car" route="route3" depart="2721" departLane="random" departSpeed="10" />
    <vehicle id="roundabout_182" type="standard_car" route="route1" depart="2721" departLane="random" departSpeed="10" />
    <vehicle id="roundabout_183" type="standard_car" route="route1" depart="2795" departLane="random" departSpeed="10" />
    <vehicle id="roundabout_184" type="standard_car" route="route4" depart="2805" departLane="random" departSpeed="10" />
    <vehicle id="roundabout_185" type="standard_car" route="route3" depart="2867" departLane="random" departSpeed="10" />
    <vehicle id="roundabout_186" type="standard_car" route="route2" depart="2979" departLane="random" departSpeed="10" />
    <vehicle id="roundabout_187" type="standard_car" route="route7" depart="2987" departLane="random" departSpeed="10" />
    <vehicle id="roundabout_188" type="standard_car" route="route2" depart="3010" departLane="random" departSpeed="10" />
    <vehicle id="roundabout_189" type="standard_car" route="route3" depart="3077" departLane="random" departSpeed="10" />
    <vehicle id="roundabout_190" type="standard_car" route="route4" depart="3110" departLane="random" departSpeed="10" />
    <vehicle id="roundabout_191" type="standard_car" route="route8" depart="3219" departLane="random" departSpeed="10" />
    <vehicle id="roundabout_192" type="standard_car" route="route1" depart="3330" departLane="random" departSpeed="10" />
    <vehicle id="roundabout_193" type="standard_car" route="route1" depart="3393" departLane="random" departSpeed="10" />
    <vehicle id="roundabout_194" type="standard_car" route="route3" depart="3443" departLane="random" departSpeed="10" />
    <vehicle id="roundabout_195" type="standard_car" route="route3" depart="3627" departLane="random" departSpeed="10" />
    <vehicle id="roundabout_196" type="standard_car" route="route4" depart="3645" departLane="random" departSpeed="10" />
    <vehicle id="roundabout_197" type="standard_car" route="route1" depart="3682" departLane="random" departSpeed="10" />
    <vehicle id="emergency_2" type="emergency" route="route6" depart="3819" departLane="random" departSpeed="10" />
    <vehicle id="roundabout_198" type="standard_car" route="route5" depart="4092" departLane="random" departSpeed="10" />
    <vehicle id="roundabout_199" type="standard_car" route="route3" depart="4397" departLane="random" departSpeed="10" />
</routes>
