<routes>
    <!-- Define emergency vehicle type -->
    <vType id="emergency" accel="3.0" decel="6.0" color="1,0,0"
           maxSpeed="20" sigma="0.5" emergency="true" />
    <!-- Define standard vehicle type -->
    <vType id="standard_car" accel="1.0" decel="4.5" length="5.0"
           minGap="2.5" maxSpeed="25" sigma="0.5" />

    <route id="route1" edges="e1 r1 e2_out"/>
    <route id="route2" edges="e2 r2 e3_out"/>
    <route id="route3" edges="e3 r3 e4_out"/>
    <route id="route4" edges="e4 r4 e1_out"/>
    <route id="route5" edges="e1 r1 r2 e3_out"/>
    <route id="route6" edges="e2 r2 r3 e4_out"/>
    <route id="route7" edges="e3 r3 r4 e1_out"/>
    <route id="route8" edges="e4 r4 r1 e2_out"/>
    <vehicle id="roundabout_0" type="standard_car" route="route3" depart="27" departLane="random" departSpeed="10" />
    <vehicle id="roundabout_1" type="standard_car" route="route6" depart="81" departLane="random" departSpeed="10" />
    <vehicle id="roundabout_2" type="standard_car" route="route4" depart="84" departLane="random" departSpeed="10" />
    <vehicle id="roundabout_3" type="standard_car" route="route2" depart="92" departLane="random" departSpeed="10" />
    <vehicle id="roundabout_4" type="standard_car" route="route5" depart="140" departLane="random" departSpeed="10" />
    <vehicle id="roundabout_5" type="standard_car" route="route7" depart="144" departLane="random" departSpeed="10" />
    <vehicle id="roundabout_6" type="standard_car" route="route4" depart="146" departLane="random" departSpeed="10" />
    <vehicle id="roundabout_7" type="standard_car" route="route2" depart="153" departLane="random" departSpeed="10" />
    <vehicle id="roundabout_8" type="standard_car" route="route2" depart="156" departLane="random" departSpeed="10" />
    <vehicle id="roundabout_9" type="standard_car" route="route3" depart="162" departLane="random" departSpeed="10" />
    <vehicle id="roundabout_10" type="standard_car" route="route2" depart="167" departLane="random" departSpeed="10" />
    <vehicle id="roundabout_11" type="standard_car" route="route7" depart="178" departLane="random" departSpeed="10" />
    <vehicle id="roundabout_12" type="standard_car" route="route3" depart="181" departLane="random" departSpeed="10" />
    <vehicle id="roundabout_13" type="standard_car" route="route3" depart="183" departLane="random" departSpeed="10" />
    <vehicle id="roundabout_14" type="standard_car" route="route2" depart="185" departLane="random" departSpeed="10" />
    <vehicle id="roundabout_15" type="standard_car" route="route6" depart="189" departLane="random" departSpeed="10" />
    <vehicle id="roundabout_16" type="standard_car" route="route2" depart="193" departLane="random" departSpeed="10" />
    <vehicle id="roundabout_17" type="standard_car" route="route2" depart="194" departLane="random" departSpeed="10" />
    <vehicle id="roundabout_18" type="standard_car" route="route2" depart="197" departLane="random" departSpeed="10" />
    <vehicle id="roundabout_19" type="standard_car" route="route3" depart="204" departLane="random" departSpeed="10" />
    <vehicle id="roundabout_20" type="standard_car" route="route1" depart="230" departLane="random" departSpeed="10" />
    <vehicle id="roundabout_21" type="standard_car" route="route2" depart="234" departLane="random" departSpeed="10" />
    <vehicle id="roundabout_22" type="standard_car" route="route3" depart="240" departLane="random" departSpeed="10" />
    <vehicle id="roundabout_23" type="standard_car" route="route8" depart="244" departLane="random" departSpeed="10" />
    <vehicle id="roundabout_24" type="standard_car" route="route4" depart="250" departLane="random" departSpeed="10" />
    <vehicle id="roundabout_25" type="standard_car" route="route4" depart="252" departLane="random" departSpeed="10" />
    <vehicle id="roundabout_26" type="standard_car" route="route4" depart="264" departLane="random" departSpeed="10" />
    <vehicle id="roundabout_27" type="standard_car" route="route4" depart="275" departLane="random" departSpeed="10" />
    <vehicle id="roundabout_28" type="standard_car" route="route3" depart="286" departLane="random" departSpeed="10" />
    <vehicle id="roundabout_29" type="standard_car" route="route4" depart="297" departLane="random" departSpeed="10" />
    <vehicle id="roundabout_30" type="standard_car" route="route2" depart="299" departLane="random" departSpeed="10" />
    <vehicle id="roundabout_31" type="standard_car" route="route4" depart="301" departLane="random" departSpeed="10" />
    <vehicle id="roundabout_32" type="standard_car" route="route3" depart="302" departLane="random" departSpeed="10" />
    <vehicle id="roundabout_33" type="standard_car" route="route3" depart="310" departLane="random" departSpeed="10" />
    <vehicle id="roundabout_34" type="standard_car" route="route3" depart="318" departLane="random" departSpeed="10" />
    <vehicle id="roundabout_35" type="standard_car" route="route6" depart="318" departLane="random" departSpeed="10" />
    <vehicle id="roundabout_36" type="standard_car" route="route7" depart="320" departLane="random" departSpeed="10" />
    <vehicle id="roundabout_37" type="standard_car" route="route1" depart="322" departLane="random" departSpeed="10" />
    <vehicle id="roundabout_38" type="standard_car" route="route4" depart="330" departLane="random" departSpeed="10" />
    <vehicle id="roundabout_39" type="standard_car" route="route2" depart="338" departLane="random" departSpeed="10" />
    <vehicle id="roundabout_40" type="standard_car" route="route2" depart="368" departLane="random" departSpeed="10" />
    <vehicle id="roundabout_41" type="standard_car" route="route1" depart="381" departLane="random" departSpeed="10" />
    <vehicle id="roundabout_42" type="standard_car" route="route4" depart="388" departLane="random" departSpeed="10" />
    <vehicle id="roundabout_43" type="standard_car" route="route4" depart="389" departLane="random" departSpeed="10" />
    <vehicle id="roundabout_44" type="standard_car" route="route4" depart="390" departLane="random" departSpeed="10" />
    <vehicle id="roundabout_45" type="standard_car" route="route3" depart="398" departLane="random" departSpeed="10" />
    <vehicle id="roundabout_46" type="standard_car" route="route2" depart="400" departLane="random" departSpeed="10" />
    <vehicle id="roundabout_47" type="standard_car" route="route2" depart="407" departLane="random" departSpeed="10" />
    <vehicle id="roundabout_48" type="standard_car" route="route1" depart="411" departLane="random" departSpeed="10" />
    <vehicle id="roundabout_49" type="standard_car" route="route4" depart="413" departLane="random" departSpeed="10" />
    <vehicle id="roundabout_50" type="standard_car" route="route5" depart="424" departLane="random" departSpeed="10" />
    <vehicle id="roundabout_51" type="standard_car" route="route1" depart="426" departLane="random" departSpeed="10" />
    <vehicle id="roundabout_52" type="standard_car" route="route7" depart="429" departLane="random" departSpeed="10" />
    <vehicle id="roundabout_53" type="standard_car" route="route1" depart="430" departLane="random" departSpeed="10" />
    <vehicle id="roundabout_54" type="standard_car" route="route1" depart="431" departLane="random" departSpeed="10" />
    <vehicle id="roundabout_55" type="standard_car" route="route5" depart="441" departLane="random" departSpeed="10" />
    <vehicle id="roundabout_56" type="standard_car" route="route1" depart="447" departLane="random" departSpeed="10" />
    <vehicle id="roundabout_57" type="standard_car" route="route3" depart="455" departLane="random" departSpeed="10" />
    <vehicle id="roundabout_58" type="standard_car" route="route3" depart="457" departLane="random" departSpeed="10" />
    <vehicle id="roundabout_59" type="standard_car" route="route8" depart="459" departLane="random" departSpeed="10" />
    <vehicle id="roundabout_60" type="standard_car" route="route7" depart="461" departLane="random" departSpeed="10" />
    <vehicle id="roundabout_61" type="standard_car" route="route1" depart="466" departLane="random" departSpeed="10" />
    <vehicle id="roundabout_62" type="standard_car" route="route1" depart="466" departLane="random" departSpeed="10" />
    <vehicle id="roundabout_63" type="standard_car" route="route2" depart="469" departLane="random" departSpeed="10" />
    <vehicle id="roundabout_64" type="standard_car" route="route2" depart="470" departLane="random" departSpeed="10" />
    <vehicle id="roundabout_65" type="standard_car" route="route6" depart="475" departLane="random" departSpeed="10" />
    <vehicle id="roundabout_66" type="standard_car" route="route7" depart="480" departLane="random" departSpeed="10" />
    <vehicle id="roundabout_67" type="standard_car" route="route1" depart="482" departLane="random" departSpeed="10" />
    <vehicle id="roundabout_68" type="standard_car" route="route1" depart="483" departLane="random" departSpeed="10" />
    <vehicle id="roundabout_69" type="standard_car" route="route2" depart="485" departLane="random" departSpeed="10" />
    <vehicle id="roundabout_70" type="standard_car" route="route6" depart="488" departLane="random" departSpeed="10" />
    <vehicle id="roundabout_71" type="standard_car" route="route7" depart="491" departLane="random" departSpeed="10" />
    <vehicle id="roundabout_72" type="standard_car" route="route3" depart="493" departLane="random" departSpeed="10" />
    <vehicle id="roundabout_73" type="standard_car" route="route3" depart="493" departLane="random" departSpeed="10" />
    <vehicle id="roundabout_74" type="standard_car" route="route2" depart="494" departLane="random" departSpeed="10" />
    <vehicle id="roundabout_75" type="standard_car" route="route4" depart="495" departLane="random" departSpeed="10" />
    <vehicle id="roundabout_76" type="standard_car" route="route1" depart="503" departLane="random" departSpeed="10" />
    <vehicle id="roundabout_77" type="standard_car" route="route2" depart="505" departLane="random" departSpeed="10" />
    <vehicle id="roundabout_78" type="standard_car" route="route3" depart="505" departLane="random" departSpeed="10" />
    <vehicle id="roundabout_79" type="standard_car" route="route1" depart="506" departLane="random" departSpeed="10" />
    <vehicle id="roundabout_80" type="standard_car" route="route2" depart="517" departLane="random" departSpeed="10" />
    <vehicle id="roundabout_81" type="standard_car" route="route1" depart="521" departLane="random" departSpeed="10" />
    <vehicle id="roundabout_82" type="standard_car" route="route2" depart="521" departLane="random" departSpeed="10" />
    <vehicle id="roundabout_83" type="standard_car" route="route2" depart="528" departLane="random" departSpeed="10" />
    <vehicle id="roundabout_84" type="standard_car" route="route1" depart="546" departLane="random" departSpeed="10" />
    <vehicle id="roundabout_85" type="standard_car" route="route1" depart="546" departLane="random" departSpeed="10" />
    <vehicle id="roundabout_86" type="standard_car" route="route3" depart="548" departLane="random" departSpeed="10" />
    <vehicle id="roundabout_87" type="standard_car" route="route3" depart="548" departLane="random" departSpeed="10" />
    <vehicle id="roundabout_88" type="standard_car" route="route3" depart="555" departLane="random" departSpeed="10" />
    <vehicle id="roundabout_89" type="standard_car" route="route1" depart="556" departLane="random" departSpeed="10" />
    <vehicle id="roundabout_90" type="standard_car" route="route2" depart="561" departLane="random" departSpeed="10" />
    <vehicle id="roundabout_91" type="standard_car" route="route2" depart="565" departLane="random" departSpeed="10" />
    <vehicle id="roundabout_92" type="standard_car" route="route4" depart="577" departLane="random" departSpeed="10" />
    <vehicle id="roundabout_93" type="standard_car" route="route4" depart="578" departLane="random" departSpeed="10" />
    <vehicle id="roundabout_94" type="standard_car" route="route1" depart="581" departLane="random" departSpeed="10" />
    <vehicle id="roundabout_95" type="standard_car" route="route4" depart="583" departLane="random" departSpeed="10" />
    <vehicle id="roundabout_96" type="standard_car" route="route7" depart="589" departLane="random" departSpeed="10" />
    <vehicle id="roundabout_97" type="standard_car" route="route3" depart="591" departLane="random" departSpeed="10" />
    <vehicle id="roundabout_98" type="standard_car" route="route3" depart="591" departLane="random" departSpeed="10" />
    <vehicle id="roundabout_99" type="standard_car" route="route3" depart="602" departLane="random" departSpeed="10" />
    <vehicle id="roundabout_100" type="standard_car" route="route3" depart="605" departLane="random" departSpeed="10" />
    <vehicle id="roundabout_101" type="standard_car" route="route3" depart="606" departLane="random" departSpeed="10" />
    <vehicle id="roundabout_102" type="standard_car" route="route2" depart="614" departLane="random" departSpeed="10" />
    <vehicle id="roundabout_103" type="standard_car" route="route4" depart="615" departLane="random" departSpeed="10" />
    <vehicle id="roundabout_104" type="standard_car" route="route1" depart="615" departLane="random" departSpeed="10" />
    <vehicle id="roundabout_105" type="standard_car" route="route2" depart="616" departLane="random" departSpeed="10" />
    <vehicle id="roundabout_106" type="standard_car" route="route1" depart="621" departLane="random" departSpeed="10" />
    <vehicle id="roundabout_107" type="standard_car" route="route6" depart="626" departLane="random" departSpeed="10" />
    <vehicle id="roundabout_108" type="standard_car" route="route8" depart="627" departLane="random" departSpeed="10" />
    <vehicle id="roundabout_109" type="standard_car" route="route3" depart="631" departLane="random" departSpeed="10" />
    <vehicle id="roundabout_110" type="standard_car" route="route8" depart="636" departLane="random" departSpeed="10" />
    <vehicle id="roundabout_111" type="standard_car" route="route4" depart="637" departLane="random" departSpeed="10" />
    <vehicle id="roundabout_112" type="standard_car" route="route4" depart="639" departLane="random" departSpeed="10" />
    <vehicle id="roundabout_113" type="standard_car" route="route4" depart="645" departLane="random" departSpeed="10" />
    <vehicle id="roundabout_114" type="standard_car" route="route1" depart="646" departLane="random" departSpeed="10" />
    <vehicle id="roundabout_115" type="standard_car" route="route4" depart="648" departLane="random" departSpeed="10" />
    <vehicle id="roundabout_116" type="standard_car" route="route4" depart="649" departLane="random" departSpeed="10" />
    <vehicle id="roundabout_117" type="standard_car" route="route4" depart="652" departLane="random" departSpeed="10" />
    <vehicle id="roundabout_118" type="standard_car" route="route3" depart="652" departLane="random" departSpeed="10" />
    <vehicle id="roundabout_119" type="standard_car" route="route2" depart="654" departLane="random" departSpeed="10" />
    <vehicle id="roundabout_120" type="standard_car" route="route4" depart="663" departLane="random" departSpeed="10" />
    <vehicle id="roundabout_121" type="standard_car" route="route1" depart="666" departLane="random" departSpeed="10" />
    <vehicle id="roundabout_122" type="standard_car" route="route3" depart="677" departLane="random" departSpeed="10" />
    <vehicle id="roundabout_123" type="standard_car" route="route1" depart="677" departLane="random" departSpeed="10" />
    <vehicle id="roundabout_124" type="standard_car" route="route4" depart="689" departLane="random" departSpeed="10" />
    <vehicle id="roundabout_125" type="standard_car" route="route2" depart="690" departLane="random" departSpeed="10" />
    <vehicle id="roundabout_126" type="standard_car" route="route3" depart="690" departLane="random" departSpeed="10" />
    <vehicle id="roundabout_127" type="standard_car" route="route4" depart="695" departLane="random" departSpeed="10" />
    <vehicle id="roundabout_128" type="standard_car" route="route7" depart="696" departLane="random" departSpeed="10" />
    <vehicle id="roundabout_129" type="standard_car" route="route3" depart="703" departLane="random" departSpeed="10" />
    <vehicle id="roundabout_130" type="standard_car" route="route1" depart="705" departLane="random" departSpeed="10" />
    <vehicle id="roundabout_131" type="standard_car" route="route6" depart="707" departLane="random" departSpeed="10" />
    <vehicle id="roundabout_132" type="standard_car" route="route1" depart="710" departLane="random" departSpeed="10" />
    <vehicle id="roundabout_133" type="standard_car" route="route5" depart="721" departLane="random" departSpeed="10" />
    <vehicle id="roundabout_134" type="standard_car" route="route1" depart="724" departLane="random" departSpeed="10" />
    <vehicle id="roundabout_135" type="standard_car" route="route8" depart="725" departLane="random" departSpeed="10" />
    <vehicle id="roundabout_136" type="standard_car" route="route1" depart="725" departLane="random" departSpeed="10" />
    <vehicle id="roundabout_137" type="standard_car" route="route1" depart="730" departLane="random" departSpeed="10" />
    <vehicle id="roundabout_138" type="standard_car" route="route1" depart="732" departLane="random" departSpeed="10" />
    <vehicle id="roundabout_139" type="standard_car" route="route2" depart="735" departLane="random" departSpeed="10" />
    <vehicle id="roundabout_140" type="standard_car" route="route7" depart="735" departLane="random" departSpeed="10" />
    <vehicle id="roundabout_141" type="standard_car" route="route3" depart="735" departLane="random" departSpeed="10" />
    <vehicle id="roundabout_142" type="standard_car" route="route5" depart="738" departLane="random" departSpeed="10" />
    <vehicle id="roundabout_143" type="standard_car" route="route2" depart="745" departLane="random" departSpeed="10" />
    <vehicle id="roundabout_144" type="standard_car" route="route2" depart="747" departLane="random" departSpeed="10" />
    <vehicle id="roundabout_145" type="standard_car" route="route4" depart="748" departLane="random" departSpeed="10" />
    <vehicle id="roundabout_146" type="standard_car" route="route1" depart="749" departLane="random" departSpeed="10" />
    <vehicle id="roundabout_147" type="standard_car" route="route3" depart="752" departLane="random" departSpeed="10" />
    <vehicle id="roundabout_148" type="standard_car" route="route2" depart="760" departLane="random" departSpeed="10" />
    <vehicle id="roundabout_149" type="standard_car" route="route5" depart="760" departLane="random" departSpeed="10" />
    <vehicle id="roundabout_150" type="standard_car" route="route4" depart="763" departLane="random" departSpeed="10" />
    <vehicle id="roundabout_151" type="standard_car" route="route1" depart="766" departLane="random" departSpeed="10" />
    <vehicle id="roundabout_152" type="standard_car" route="route3" depart="768" departLane="random" departSpeed="10" />
    <vehicle id="roundabout_153" type="standard_car" route="route2" depart="769" departLane="random" departSpeed="10" />
    <vehicle id="roundabout_154" type="standard_car" route="route4" depart="770" departLane="random" departSpeed="10" />
    <vehicle id="roundabout_155" type="standard_car" route="route8" depart="773" departLane="random" departSpeed="10" />
    <vehicle id="roundabout_156" type="standard_car" route="route8" depart="779" departLane="random" departSpeed="10" />
    <vehicle id="roundabout_157" type="standard_car" route="route2" depart="779" departLane="random" departSpeed="10" />
    <vehicle id="roundabout_158" type="standard_car" route="route6" depart="779" departLane="random" departSpeed="10" />
    <vehicle id="roundabout_159" type="standard_car" route="route5" depart="783" departLane="random" departSpeed="10" />
    <vehicle id="roundabout_160" type="standard_car" route="route4" depart="790" departLane="random" departSpeed="10" />
    <vehicle id="roundabout_161" type="standard_car" route="route2" depart="792" departLane="random" departSpeed="10" />
    <vehicle id="roundabout_162" type="standard_car" route="route1" depart="792" departLane="random" departSpeed="10" />
    <vehicle id="roundabout_163" type="standard_car" route="route3" depart="792" departLane="random" departSpeed="10" />
    <vehicle id="roundabout_164" type="standard_car" route="route3" depart="792" departLane="random" departSpeed="10" />
    <vehicle id="roundabout_165" type="standard_car" route="route4" depart="794" departLane="random" departSpeed="10" />
    <vehicle id="roundabout_166" type="standard_car" route="route8" depart="797" departLane="random" departSpeed="10" />
    <vehicle id="roundabout_167" type="standard_car" route="route1" depart="801" departLane="random" departSpeed="10" />
    <vehicle id="roundabout_168" type="standard_car" route="route5" depart="802" departLane="random" departSpeed="10" />
    <vehicle id="roundabout_169" type="standard_car" route="route1" depart="810" departLane="random" departSpeed="10" />
    <vehicle id="roundabout_170" type="standard_car" route="route3" depart="810" departLane="random" departSpeed="10" />
    <vehicle id="roundabout_171" type="standard_car" route="route3" depart="817" departLane="random" departSpeed="10" />
    <vehicle id="roundabout_172" type="standard_car" route="route4" depart="821" departLane="random" departSpeed="10" />
    <vehicle id="roundabout_173" type="standard_car" route="route1" depart="824" departLane="random" departSpeed="10" />
    <vehicle id="roundabout_174" type="standard_car" route="route1" depart="829" departLane="random" departSpeed="10" />
    <vehicle id="roundabout_175" type="standard_car" route="route3" depart="830" departLane="random" departSpeed="10" />
    <vehicle id="roundabout_176" type="standard_car" route="route2" depart="836" departLane="random" departSpeed="10" />
    <vehicle id="roundabout_177" type="standard_car" route="route3" depart="839" departLane="random" departSpeed="10" />
    <vehicle id="roundabout_178" type="standard_car" route="route3" depart="841" departLane="random" departSpeed="10" />
    <vehicle id="roundabout_179" type="standard_car" route="route6" depart="845" departLane="random" departSpeed="10" />
    <vehicle id="roundabout_180" type="standard_car" route="route1" depart="849" departLane="random" departSpeed="10" />
    <vehicle id="roundabout_181" type="standard_car" route="route5" depart="849" departLane="random" departSpeed="10" />
    <vehicle id="roundabout_182" type="standard_car" route="route1" depart="850" departLane="random" departSpeed="10" />
    <vehicle id="roundabout_183" type="standard_car" route="route2" depart="851" departLane="random" departSpeed="10" />
    <vehicle id="roundabout_184" type="standard_car" route="route5" depart="853" departLane="random" departSpeed="10" />
    <vehicle id="roundabout_185" type="standard_car" route="route2" depart="854" departLane="random" departSpeed="10" />
    <vehicle id="roundabout_186" type="standard_car" route="route2" depart="856" departLane="random" departSpeed="10" />
    <vehicle id="roundabout_187" type="standard_car" route="route4" depart="859" departLane="random" departSpeed="10" />
    <vehicle id="roundabout_188" type="standard_car" route="route2" depart="860" departLane="random" departSpeed="10" />
    <vehicle id="roundabout_189" type="standard_car" route="route1" depart="862" departLane="random" departSpeed="10" />
    <vehicle id="roundabout_190" type="standard_car" route="route5" depart="864" departLane="random" departSpeed="10" />
    <vehicle id="roundabout_191" type="standard_car" route="route2" depart="868" departLane="random" departSpeed="10" />
    <vehicle id="roundabout_192" type="standard_car" route="route2" depart="870" departLane="random" departSpeed="10" />
    <vehicle id="roundabout_193" type="standard_car" route="route5" depart="871" departLane="random" departSpeed="10" />
    <vehicle id="roundabout_194" type="standard_car" route="route4" depart="873" departLane="random" departSpeed="10" />
    <vehicle id="roundabout_195" type="standard_car" route="route3" depart="873" departLane="random" departSpeed="10" />
    <vehicle id="roundabout_196" type="standard_car" route="route3" depart="875" departLane="random" departSpeed="10" />
    <vehicle id="roundabout_197" type="standard_car" route="route2" depart="887" departLane="random" departSpeed="10" />
    <vehicle id="roundabout_198" type="standard_car" route="route2" depart="890" departLane="random" departSpeed="10" />
    <vehicle id="roundabout_199" type="standard_car" route="route4" depart="891" departLane="random" departSpeed="10" />
    <vehicle id="roundabout_200" type="standard_car" route="route4" depart="894" departLane="random" departSpeed="10" />
    <vehicle id="roundabout_201" type="standard_car" route="route4" depart="897" departLane="random" departSpeed="10" />
    <vehicle id="roundabout_202" type="standard_car" route="route8" depart="898" departLane="random" departSpeed="10" />
    <vehicle id="roundabout_203" type="standard_car" route="route7" depart="899" departLane="random" departSpeed="10" />
    <vehicle id="roundabout_204" type="standard_car" route="route3" depart="905" departLane="random" departSpeed="10" />
    <vehicle id="roundabout_205" type="standard_car" route="route1" depart="906" departLane="random" departSpeed="10" />
    <vehicle id="roundabout_206" type="standard_car" route="route3" depart="908" departLane="random" departSpeed="10" />
    <vehicle id="roundabout_207" type="standard_car" route="route4" depart="909" departLane="random" departSpeed="10" />
    <vehicle id="roundabout_208" type="standard_car" route="route1" depart="911" departLane="random" departSpeed="10" />
    <vehicle id="roundabout_209" type="standard_car" route="route1" depart="912" departLane="random" departSpeed="10" />
    <vehicle id="roundabout_210" type="standard_car" route="route3" depart="912" departLane="random" departSpeed="10" />
    <vehicle id="roundabout_211" type="standard_car" route="route4" depart="913" departLane="random" departSpeed="10" />
    <vehicle id="roundabout_212" type="standard_car" route="route3" depart="915" departLane="random" departSpeed="10" />
    <vehicle id="roundabout_213" type="standard_car" route="route7" depart="916" departLane="random" departSpeed="10" />
    <vehicle id="roundabout_214" type="standard_car" route="route7" depart="917" departLane="random" departSpeed="10" />
    <vehicle id="roundabout_215" type="standard_car" route="route3" depart="917" departLane="random" departSpeed="10" />
    <vehicle id="roundabout_216" type="standard_car" route="route2" depart="919" departLane="random" departSpeed="10" />
    <vehicle id="roundabout_217" type="standard_car" route="route2" depart="921" departLane="random" departSpeed="10" />
    <vehicle id="roundabout_218" type="standard_car" route="route1" depart="924" departLane="random" departSpeed="10" />
    <vehicle id="roundabout_219" type="standard_car" route="route3" depart="929" departLane="random" departSpeed="10" />
    <vehicle id="roundabout_220" type="standard_car" route="route3" depart="930" departLane="random" departSpeed="10" />
    <vehicle id="roundabout_221" type="standard_car" route="route3" depart="936" departLane="random" departSpeed="10" />
    <vehicle id="roundabout_222" type="standard_car" route="route4" depart="937" departLane="random" departSpeed="10" />
    <vehicle id="roundabout_223" type="standard_car" route="route2" depart="941" departLane="random" departSpeed="10" />
    <vehicle id="roundabout_224" type="standard_car" route="route2" depart="943" departLane="random" departSpeed="10" />
    <vehicle id="roundabout_225" type="standard_car" route="route4" depart="950" departLane="random" departSpeed="10" />
    <vehicle id="roundabout_226" type="standard_car" route="route4" depart="957" departLane="random" departSpeed="10" />
    <vehicle id="roundabout_227" type="standard_car" route="route2" depart="957" departLane="random" departSpeed="10" />
    <vehicle id="roundabout_228" type="standard_car" route="route8" depart="959" departLane="random" departSpeed="10" />
    <vehicle id="roundabout_229" type="standard_car" route="route2" depart="963" departLane="random" departSpeed="10" />
    <vehicle id="roundabout_230" type="standard_car" route="route2" depart="964" departLane="random" departSpeed="10" />
    <vehicle id="roundabout_231" type="standard_car" route="route1" depart="965" departLane="random" departSpeed="10" />
    <vehicle id="roundabout_232" type="standard_car" route="route5" depart="967" departLane="random" departSpeed="10" />
    <vehicle id="roundabout_233" type="standard_car" route="route3" depart="968" departLane="random" departSpeed="10" />
    <vehicle id="roundabout_234" type="standard_car" route="route4" depart="969" departLane="random" departSpeed="10" />
    <vehicle id="roundabout_235" type="standard_car" route="route4" depart="970" departLane="random" departSpeed="10" />
    <vehicle id="roundabout_236" type="standard_car" route="route3" depart="975" departLane="random" departSpeed="10" />
    <vehicle id="roundabout_237" type="standard_car" route="route4" depart="976" departLane="random" departSpeed="10" />
    <vehicle id="roundabout_238" type="standard_car" route="route4" depart="981" departLane="random" departSpeed="10" />
    <vehicle id="roundabout_239" type="standard_car" route="route1" depart="981" departLane="random" departSpeed="10" />
    <vehicle id="roundabout_240" type="standard_car" route="route1" depart="984" departLane="random" departSpeed="10" />
    <vehicle id="roundabout_241" type="standard_car" route="route2" depart="986" departLane="random" departSpeed="10" />