<routes>
    <!-- Define emergency vehicle type -->
    <vType id="emergency" accel="3.0" decel="6.0" color="1,0,0"
           maxSpeed="20" sigma="0.5" emergency="true" />
    <!-- Define standard vehicle type -->
    <vType id="standard_car" accel="1.0" decel="4.5" length="5.0"
           minGap="2.5" maxSpeed="25" sigma="0.5" />

    <route id="route1" edges="e1 r1 e2_out"/>
    <route id="route2" edges="e2 r2 e3_out"/>
    <route id="route3" edges="e3 r3 e4_out"/>
    <route id="route4" edges="e4 r4 e1_out"/>
    <route id="route5" edges="e1 r1 r2 e3_out"/>
    <route id="route6" edges="e2 r2 r3 e4_out"/>
    <route id="route7" edges="e3 r3 r4 e1_out"/>
    <route id="route8" edges="e4 r4 r1 e2_out"/>
    <vehicle id="roundabout_0" type="standard_car" route="route3" depart="42" departLane="random" departSpeed="10" />
    <vehicle id="roundabout_1" type="standard_car" route="route2" depart="67" departLane="random" departSpeed="10" />
    <vehicle id="roundabout_2" type="standard_car" route="route1" depart="94" departLane="random" departSpeed="10" />
    <vehicle id="roundabout_3" type="standard_car" route="route3" depart="112" departLane="random" departSpeed="10" />
    <vehicle id="roundabout_4" type="standard_car" route="route3" depart="123" departLane="random" departSpeed="10" />
    <vehicle id="roundabout_5" type="standard_car" route="route3" depart="129" departLane="random" departSpeed="10" />
    <vehicle id="roundabout_6" type="standard_car" route="route8" depart="160" departLane="random" departSpeed="10" />
    <vehicle id="roundabout_7" type="standard_car" route="route2" depart="193" departLane="random" departSpeed="10" />
    <vehicle id="roundabout_8" type="standard_car" route="route1" depart="195" departLane="random" departSpeed="10" />
    <vehicle id="roundabout_9" type="standard_car" route="route4" depart="198" departLane="random" departSpeed="10" />
    <vehicle id="roundabout_10" type="standard_car" route="route1" depart="199" departLane="random" departSpeed="10" />
    <vehicle id="roundabout_11" type="standard_car" route="route7" depart="208" departLane="random" departSpeed="10" />
    <vehicle id="roundabout_12" type="standard_car" route="route4" depart="226" departLane="random" departSpeed="10" />
    <vehicle id="roundabout_13" type="standard_car" route="route1" depart="231" departLane="random" departSpeed="10" />
    <vehicle id="roundabout_14" type="standard_car" route="route3" depart="232" departLane="random" departSpeed="10" />
    <vehicle id="roundabout_15" type="standard_car" route="route3" depart="235" departLane="random" departSpeed="10" />
    <vehicle id="roundabout_16" type="standard_car" route="route1" depart="246" departLane="random" departSpeed="10" />
    <vehicle id="roundabout_17" type="standard_car" route="route2" depart="248" departLane="random" departSpeed="10" />
    <vehicle id="roundabout_18" type="standard_car" route="route2" depart="250" departLane="random" departSpeed="10" />
    <vehicle id="roundabout_19" type="standard_car" route="route3" depart="251" departLane="random" departSpeed="10" />
    <vehicle id="roundabout_20" type="standard_car" route="route1" depart="257" departLane="random" departSpeed="10" />
    <vehicle id="roundabout_21" type="standard_car" route="route3" depart="257" departLane="random" departSpeed="10" />
    <vehicle id="roundabout_22" type="standard_car" route="route5" depart="260" departLane="random" departSpeed="10" />
    <vehicle id="roundabout_23" type="standard_car" route="route4" depart="282" departLane="random" departSpeed="10" />
    <vehicle id="roundabout_24" type="standard_car" route="route3" depart="285" departLane="random" departSpeed="10" />
    <vehicle id="roundabout_25" type="standard_car" route="route2" depart="290" departLane="random" departSpeed="10" />
    <vehicle id="roundabout_26" type="standard_car" route="route2" depart="309" departLane="random" departSpeed="10" />
    <vehicle id="roundabout_27" type="standard_car" route="route2" depart="310" departLane="random" departSpeed="10" />
    <vehicle id="roundabout_28" type="standard_car" route="route2" depart="314" departLane="random" departSpeed="10" />
    <vehicle id="roundabout_29" type="standard_car" route="route3" depart="315" departLane="random" departSpeed="10" />
    <vehicle id="roundabout_30" type="standard_car" route="route4" depart="324" departLane="random" departSpeed="10" />
    <vehicle id="roundabout_31" type="standard_car" route="route1" depart="330" departLane="random" departSpeed="10" />
    <vehicle id="roundabout_32" type="standard_car" route="route2" depart="331" departLane="random" departSpeed="10" />
    <vehicle id="roundabout_33" type="standard_car" route="route4" depart="342" departLane="random" departSpeed="10" />
    <vehicle id="roundabout_34" type="standard_car" route="route3" depart="345" departLane="random" departSpeed="10" />
    <vehicle id="roundabout_35" type="standard_car" route="route1" depart="357" departLane="random" departSpeed="10" />
    <vehicle id="roundabout_36" type="standard_car" route="route7" depart="360" departLane="random" departSpeed="10" />
    <vehicle id="roundabout_37" type="standard_car" route="route1" depart="362" departLane="random" departSpeed="10" />
    <vehicle id="roundabout_38" type="standard_car" route="route2" depart="364" departLane="random" departSpeed="10" />
    <vehicle id="roundabout_39" type="standard_car" route="route4" depart="377" departLane="random" departSpeed="10" />
    <vehicle id="roundabout_40" type="standard_car" route="route1" depart="385" departLane="random" departSpeed="10" />
    <vehicle id="roundabout_41" type="standard_car" route="route4" depart="391" departLane="random" departSpeed="10" />
    <vehicle id="roundabout_42" type="standard_car" route="route3" depart="394" departLane="random" departSpeed="10" />
    <vehicle id="roundabout_43" type="standard_car" route="route6" depart="402" departLane="random" departSpeed="10" />
    <vehicle id="roundabout_44" type="standard_car" route="route2" depart="405" departLane="random" departSpeed="10" />
    <vehicle id="roundabout_45" type="standard_car" route="route2" depart="422" departLane="random" departSpeed="10" />
    <vehicle id="roundabout_46" type="standard_car" route="route1" depart="425" departLane="random" departSpeed="10" />
    <vehicle id="roundabout_47" type="standard_car" route="route5" depart="430" departLane="random" departSpeed="10" />
    <vehicle id="roundabout_48" type="standard_car" route="route1" depart="435" departLane="random" departSpeed="10" />
    <vehicle id="roundabout_49" type="standard_car" route="route7" depart="436" departLane="random" departSpeed="10" />
    <vehicle id="roundabout_50" type="standard_car" route="route3" depart="440" departLane="random" departSpeed="10" />
    <vehicle id="roundabout_51" type="standard_car" route="route3" depart="441" departLane="random" departSpeed="10" />
    <vehicle id="roundabout_52" type="standard_car" route="route3" depart="442" departLane="random" departSpeed="10" />
    <vehicle id="roundabout_53" type="standard_car" route="route4" depart="445" departLane="random" departSpeed="10" />
    <vehicle id="roundabout_54" type="standard_car" route="route3" depart="448" departLane="random" departSpeed="10" />
    <vehicle id="roundabout_55" type="standard_car" route="route1" depart="449" departLane="random" departSpeed="10" />
    <vehicle id="roundabout_56" type="standard_car" route="route7" depart="452" departLane="random" departSpeed="10" />
    <vehicle id="roundabout_57" type="standard_car" route="route5" depart="458" departLane="random" departSpeed="10" />
    <vehicle id="roundabout_58" type="standard_car" route="route1" depart="458" departLane="random" departSpeed="10" />
    <vehicle id="roundabout_59" type="standard_car" route="route3" depart="460" departLane="random" departSpeed="10" />
    <vehicle id="roundabout_60" type="standard_car" route="route4" depart="461" departLane="random" departSpeed="10" />
    <vehicle id="roundabout_61" type="standard_car" route="route6" depart="463" departLane="random" departSpeed="10" />
    <vehicle id="roundabout_62" type="standard_car" route="route7" depart="463" departLane="random" departSpeed="10" />
    <vehicle id="roundabout_63" type="standard_car" route="route4" depart="468" departLane="random" departSpeed="10" />
    <vehicle id="roundabout_64" type="standard_car" route="route4" depart="469" departLane="random" departSpeed="10" />
    <vehicle id="roundabout_65" type="standard_car" route="route5" depart="471" departLane="random" departSpeed="10" />
    <vehicle id="roundabout_66" type="standard_car" route="route2" depart="475" departLane="random" departSpeed="10" />
    <vehicle id="roundabout_67" type="standard_car" route="route1" depart="478" departLane="random" departSpeed="10" />
    <vehicle id="roundabout_68" type="standard_car" route="route3" depart="481" departLane="random" departSpeed="10" />
    <vehicle id="roundabout_69" type="standard_car" route="route5" depart="482" departLane="random" departSpeed="10" />
    <vehicle id="roundabout_70" type="standard_car" route="route3" depart="482" departLane="random" departSpeed="10" />
    <vehicle id="roundabout_71" type="standard_car" route="route7" depart="485" departLane="random" departSpeed="10" />
    <vehicle id="roundabout_72" type="standard_car" route="route2" depart="488" departLane="random" departSpeed="10" />
    <vehicle id="roundabout_73" type="standard_car" route="route3" depart="489" departLane="random" departSpeed="10" />
    <vehicle id="roundabout_74" type="standard_car" route="route2" depart="504" departLane="random" departSpeed="10" />
    <vehicle id="roundabout_75" type="standard_car" route="route3" depart="508" departLane="random" departSpeed="10" />
    <vehicle id="roundabout_76" type="standard_car" route="route4" depart="509" departLane="random" departSpeed="10" />
    <vehicle id="roundabout_77" type="standard_car" route="route4" depart="518" departLane="random" departSpeed="10" />
    <vehicle id="roundabout_78" type="standard_car" route="route3" depart="522" departLane="random" departSpeed="10" />
    <vehicle id="roundabout_79" type="standard_car" route="route3" depart="523" departLane="random" departSpeed="10" />
    <vehicle id="roundabout_80" type="standard_car" route="route4" depart="524" departLane="random" departSpeed="10" />
    <vehicle id="roundabout_81" type="standard_car" route="route2" depart="531" departLane="random" departSpeed="10" />
    <vehicle id="roundabout_82" type="standard_car" route="route4" depart="538" departLane="random" departSpeed="10" />
    <vehicle id="roundabout_83" type="standard_car" route="route4" depart="543" departLane="random" departSpeed="10" />
    <vehicle id="roundabout_84" type="standard_car" route="route7" depart="551" departLane="random" departSpeed="10" />
    <vehicle id="roundabout_85" type="standard_car" route="route3" depart="552" departLane="random" departSpeed="10" />
    <vehicle id="roundabout_86" type="standard_car" route="route2" depart="556" departLane="random" departSpeed="10" />
    <vehicle id="roundabout_87" type="standard_car" route="route3" depart="565" departLane="random" departSpeed="10" />
    <vehicle id="roundabout_88" type="standard_car" route="route5" depart="572" departLane="random" departSpeed="10" />
    <vehicle id="roundabout_89" type="standard_car" route="route6" depart="573" departLane="random" departSpeed="10" />
    <vehicle id="roundabout_90" type="standard_car" route="route4" depart="574" departLane="random" departSpeed="10" />
    <vehicle id="roundabout_91" type="standard_car" route="route1" depart="575" departLane="random" departSpeed="10" />
    <vehicle id="roundabout_92" type="standard_car" route="route3" depart="576" departLane="random" departSpeed="10" />
    <vehicle id="roundabout_93" type="standard_car" route="route1" depart="576" departLane="random" departSpeed="10" />
    <vehicle id="roundabout_94" type="standard_car" route="route4" depart="577" departLane="random" departSpeed="10" />
    <vehicle id="roundabout_95" type="standard_car" route="route4" depart="578" departLane="random" departSpeed="10" />
    <vehicle id="roundabout_96" type="standard_car" route="route3" depart="583" departLane="random" departSpeed="10" />
    <vehicle id="roundabout_97" type="standard_car" route="route1" depart="583" departLane="random" departSpeed="10" />
    <vehicle id="roundabout_98" type="standard_car" route="route2" depart="584" departLane="random" departSpeed="10" />
    <vehicle id="roundabout_99" type="standard_car" route="route2" depart="585" departLane="random" departSpeed="10" />
    <vehicle id="roundabout_100" type="standard_car" route="route3" depart="585" departLane="random" departSpeed="10" />
    <vehicle id="roundabout_101" type="standard_car" route="route4" depart="591" departLane="random" departSpeed="10" />
    <vehicle id="roundabout_102" type="standard_car" route="route2" depart="592" departLane="random" departSpeed="10" />
    <vehicle id="roundabout_103" type="standard_car" route="route8" depart="594" departLane="random" departSpeed="10" />
    <vehicle id="roundabout_104" type="standard_car" route="route3" depart="598" departLane="random" departSpeed="10" />
    <vehicle id="roundabout_105" type="standard_car" route="route8" depart="602" departLane="random" departSpeed="10" />
    <vehicle id="roundabout_106" type="standard_car" route="route2" depart="606" departLane="random" departSpeed="10" />
    <vehicle id="roundabout_107" type="standard_car" route="route8" depart="606" departLane="random" departSpeed="10" />
    <vehicle id="roundabout_108" type="standard_car" route="route4" depart="607" departLane="random" departSpeed="10" />
    <vehicle id="roundabout_109" type="standard_car" route="route4" depart="614" departLane="random" departSpeed="10" />
    <vehicle id="roundabout_110" type="standard_car" route="route3" depart="616" departLane="random" departSpeed="10" />
    <vehicle id="roundabout_111" type="standard_car" route="route4" depart="616" departLane="random" departSpeed="10" />
    <vehicle id="roundabout_112" type="standard_car" route="route1" depart="619" departLane="random" departSpeed="10" />
    <vehicle id="roundabout_113" type="standard_car" route="route4" depart="622" departLane="random" departSpeed="10" />
    <vehicle id="roundabout_114" type="standard_car" route="route3" depart="631" departLane="random" departSpeed="10" />
    <vehicle id="roundabout_115" type="standard_car" route="route4" depart="631" departLane="random" departSpeed="10" />
    <vehicle id="roundabout_116" type="standard_car" route="route6" depart="631" departLane="random" departSpeed="10" />
    <vehicle id="roundabout_117" type="standard_car" route="route8" depart="632" departLane="random" departSpeed="10" />
    <vehicle id="roundabout_118" type="standard_car" route="route4" depart="632" departLane="random" departSpeed="10" />
    <vehicle id="roundabout_119" type="standard_car" route="route2" depart="636" departLane="random" departSpeed="10" />
    <vehicle id="roundabout_120" type="standard_car" route="route4" depart="636" departLane="random" departSpeed="10" />
    <vehicle id="roundabout_121" type="standard_car" route="route2" depart="636" departLane="random" departSpeed="10" />
    <vehicle id="roundabout_122" type="standard_car" route="route2" depart="636" departLane="random" departSpeed="10" />
    <vehicle id="roundabout_123" type="standard_car" route="route8" depart="636" departLane="random" departSpeed="10" />
    <vehicle id="roundabout_124" type="standard_car" route="route2" depart="639" departLane="random" departSpeed="10" />
    <vehicle id="roundabout_125" type="standard_car" route="route5" depart="640" departLane="random" departSpeed="10" />
    <vehicle id="roundabout_126" type="standard_car" route="route6" depart="644" departLane="random" departSpeed="10" />
    <vehicle id="roundabout_127" type="standard_car" route="route3" depart="644" departLane="random" departSpeed="10" />
    <vehicle id="roundabout_128" type="standard_car" route="route1" depart="654" departLane="random" departSpeed="10" />
    <vehicle id="roundabout_129" type="standard_car" route="route1" depart="669" departLane="random" departSpeed="10" />
    <vehicle id="roundabout_130" type="standard_car" route="route3" depart="669" departLane="random" departSpeed="10" />
    <vehicle id="roundabout_131" type="standard_car" route="route1" depart="675" departLane="random" departSpeed="10" />
    <vehicle id="roundabout_132" type="standard_car" route="route3" depart="675" departLane="random" departSpeed="10" />
    <vehicle id="roundabout_133" type="standard_car" route="route2" depart="676" departLane="random" departSpeed="10" />
    <vehicle id="roundabout_134" type="standard_car" route="route6" depart="677" departLane="random" departSpeed="10" />
    <vehicle id="roundabout_135" type="standard_car" route="route2" depart="677" departLane="random" departSpeed="10" />
    <vehicle id="roundabout_136" type="standard_car" route="route4" depart="679" departLane="random" departSpeed="10" />
    <vehicle id="roundabout_137" type="standard_car" route="route3" depart="681" departLane="random" departSpeed="10" />
    <vehicle id="roundabout_138" type="standard_car" route="route6" depart="681" departLane="random" departSpeed="10" />
    <vehicle id="roundabout_139" type="standard_car" route="route4" depart="687" departLane="random" departSpeed="10" />
    <vehicle id="roundabout_140" type="standard_car" route="route4" depart="691" departLane="random" departSpeed="10" />
    <vehicle id="roundabout_141" type="standard_car" route="route5" depart="694" departLane="random" departSpeed="10" />
    <vehicle id="roundabout_142" type="standard_car" route="route3" depart="697" departLane="random" departSpeed="10" />
    <vehicle id="roundabout_143" type="standard_car" route="route4" depart="700" departLane="random" departSpeed="10" />
    <vehicle id="roundabout_144" type="standard_car" route="route1" depart="700" departLane="random" departSpeed="10" />
    <vehicle id="roundabout_145" type="standard_car" route="route6" depart="703" departLane="random" departSpeed="10" />
    <vehicle id="roundabout_146" type="standard_car" route="route4" depart="708" departLane="random" departSpeed="10" />
    <vehicle id="roundabout_147" type="standard_car" route="route3" depart="712" departLane="random" departSpeed="10" />
    <vehicle id="roundabout_148" type="standard_car" route="route7" depart="718" departLane="random" departSpeed="10" />
    <vehicle id="roundabout_149" type="standard_car" route="route2" depart="720" departLane="random" departSpeed="10" />
    <vehicle id="roundabout_150" type="standard_car" route="route3" depart="720" departLane="random" departSpeed="10" />
    <vehicle id="roundabout_151" type="standard_car" route="route4" depart="720" departLane="random" departSpeed="10" />
    <vehicle id="roundabout_152" type="standard_car" route="route4" depart="721" departLane="random" departSpeed="10" />
    <vehicle id="roundabout_153" type="standard_car" route="route3" depart="724" departLane="random" departSpeed="10" />
    <vehicle id="roundabout_154" type="standard_car" route="route1" depart="728" departLane="random" departSpeed="10" />
    <vehicle id="roundabout_155" type="standard_car" route="route2" depart="732" departLane="random" departSpeed="10" />
    <vehicle id="roundabout_156" type="standard_car" route="route4" depart="734" departLane="random" departSpeed="10" />
    <vehicle id="roundabout_157" type="standard_car" route="route1" depart="742" departLane="random" departSpeed="10" />
    <vehicle id="roundabout_158" type="standard_car" route="route1" depart="749" departLane="random" departSpeed="10" />
    <vehicle id="roundabout_159" type="standard_car" route="route1" depart="749" departLane="random" departSpeed="10" />
    <vehicle id="roundabout_160" type="standard_car" route="route1" depart="750" departLane="random" departSpeed="10" />
    <vehicle id="roundabout_161" type="standard_car" route="route3" depart="751" departLane="random" departSpeed="10" />
    <vehicle id="roundabout_162" type="standard_car" route="route1" depart="752" departLane="random" departSpeed="10" />
    <vehicle id="roundabout_163" type="standard_car" route="route1" depart="753" departLane="random" departSpeed="10" />
    <vehicle id="roundabout_164" type="standard_car" route="route4" depart="753" departLane="random" departSpeed="10" />
    <vehicle id="roundabout_165" type="standard_car" route="route3" depart="755" departLane="random" departSpeed="10" />
    <vehicle id="roundabout_166" type="standard_car" route="route4" depart="757" departLane="random" departSpeed="10" />
    <vehicle id="roundabout_167" type="standard_car" route="route6" depart="758" departLane="random" departSpeed="10" />
    <vehicle id="roundabout_168" type="standard_car" route="route3" depart="758" departLane="random" departSpeed="10" />
    <vehicle id="roundabout_169" type="standard_car" route="route2" depart="759" departLane="random" departSpeed="10" />
    <vehicle id="roundabout_170" type="standard_car" route="route2" depart="764" departLane="random" departSpeed="10" />
    <vehicle id="roundabout_171" type="standard_car" route="route5" depart="767" departLane="random" departSpeed="10" />
    <vehicle id="roundabout_172" type="standard_car" route="route1" depart="775" departLane="random" departSpeed="10" />
    <vehicle id="roundabout_173" type="standard_car" route="route2" depart="781" departLane="random" departSpeed="10" />
    <vehicle id="roundabout_174" type="standard_car" route="route1" depart="782" departLane="random" departSpeed="10" />
    <vehicle id="roundabout_175" type="standard_car" route="route4" depart="784" departLane="random" departSpeed="10" />
    <vehicle id="roundabout_176" type="standard_car" route="route6" depart="789" departLane="random" departSpeed="10" />
    <vehicle id="roundabout_177" type="standard_car" route="route5" depart="789" departLane="random" departSpeed="10" />
    <vehicle id="roundabout_178" type="standard_car" route="route4" depart="790" departLane="random" departSpeed="10" />
    <vehicle id="roundabout_179" type="standard_car" route="route1" depart="793" departLane="random" departSpeed="10" />
    <vehicle id="roundabout_180" type="standard_car" route="route4" depart="794" departLane="random" departSpeed="10" />
    <vehicle id="roundabout_181" type="standard_car" route="route3" depart="798" departLane="random" departSpeed="10" />
    <vehicle id="roundabout_182" type="standard_car" route="route2" depart="801" departLane="random" departSpeed="10" />
    <vehicle id="roundabout_183" type="standard_car" route="route4" depart="801" departLane="random" departSpeed="10" />
    <vehicle id="roundabout_184" type="standard_car" route="route2" depart="805" departLane="random" departSpeed="10" />
    <vehicle id="roundabout_185" type="standard_car" route="route4" depart="809" departLane="random" departSpeed="10" />
    <vehicle id="roundabout_186" type="standard_car" route="route3" depart="810" departLane="random" departSpeed="10" />
    <vehicle id="roundabout_187" type="standard_car" route="route3" depart="810" departLane="random" departSpeed="10" />
    <vehicle id="roundabout_188" type="standard_car" route="route4" depart="815" departLane="random" departSpeed="10" />
    <vehicle id="roundabout_189" type="standard_car" route="route1" depart="815" departLane="random" departSpeed="10" />
    <vehicle id="roundabout_190" type="standard_car" route="route7" depart="816" departLane="random" departSpeed="10" />
    <vehicle id="roundabout_191" type="standard_car" route="route5" depart="817" departLane="random" departSpeed="10" />
    <vehicle id="roundabout_192" type="standard_car" route="route2" depart="819" departLane="random" departSpeed="10" />
    <vehicle id="roundabout_193" type="standard_car" route="route2" depart="826" departLane="random" departSpeed="10" />
    <vehicle id="roundabout_194" type="standard_car" route="route5" depart="828" departLane="random" departSpeed="10" />
    <vehicle id="roundabout_195" type="standard_car" route="route1" depart="842" departLane="random" departSpeed="10" />
    <vehicle id="roundabout_196" type="standard_car" route="route2" depart="843" departLane="random" departSpeed="10" />
    <vehicle id="roundabout_197" type="standard_car" route="route2" depart="844" departLane="random" departSpeed="10" />
    <vehicle id="roundabout_198" type="standard_car" route="route3" depart="849" departLane="random" departSpeed="10" />
    <vehicle id="roundabout_199" type="standard_car" route="route8" depart="850" departLane="random" departSpeed="10" />
    <vehicle id="roundabout_200" type="standard_car" route="route8" depart="862" departLane="random" departSpeed="10" />
    <vehicle id="roundabout_201" type="standard_car" route="route6" depart="868" departLane="random" departSpeed="10" />
    <vehicle id="roundabout_202" type="standard_car" route="route1" depart="870" departLane="random" departSpeed="10" />
    <vehicle id="roundabout_203" type="standard_car" route="route3" depart="871" departLane="random" departSpeed="10" />
    <vehicle id="roundabout_204" type="standard_car" route="route3" depart="873" departLane="random" departSpeed="10" />
    <vehicle id="roundabout_205" type="standard_car" route="route1" depart="874" departLane="random" departSpeed="10" />
    <vehicle id="roundabout_206" type="standard_car" route="route4" depart="875" departLane="random" departSpeed="10" />
    <vehicle id="roundabout_207" type="standard_car" route="route3" depart="877" departLane="random" departSpeed="10" />
    <vehicle id="roundabout_208" type="standard_car" route="route4" depart="880" departLane="random" departSpeed="10" />
    <vehicle id="roundabout_209" type="standard_car" route="route3" depart="882" departLane="random" departSpeed="10" />
    <vehicle id="roundabout_210" type="standard_car" route="route3" depart="883" departLane="random" departSpeed="10" />
    <vehicle id="roundabout_211" type="standard_car" route="route2" depart="887" departLane="random" departSpeed="10" />
    <vehicle id="roundabout_212" type="standard_car" route="route2" depart="887" departLane="random" departSpeed="10" />
    <vehicle id="roundabout_213" type="standard_car" route="route4" depart="889" departLane="random" departSpeed="10" />
    <vehicle id="roundabout_214" type="standard_car" route="route2" depart="890" departLane="random" departSpeed="10" />
    <vehicle id="roundabout_215" type="standard_car" route="route6" depart="890" departLane="random" departSpeed="10" />
    <vehicle id="roundabout_216" type="standard_car" route="route8" depart="892" departLane="random" departSpeed="10" />
    <vehicle id="roundabout_217" type="standard_car" route="route2" depart="897" departLane="random" departSpeed="10" />
    <vehicle id="roundabout_218" type="standard_car" route="route4" depart="900" departLane="random" departSpeed="10" />
    <vehicle id="roundabout_219" type="standard_car" route="route2" depart="900" departLane="random" departSpeed="10" />
    <vehicle id="roundabout_220" type="standard_car" route="route3" depart="904" departLane="random" departSpeed="10" />
    <vehicle id="roundabout_221" type="standard_car" route="route4" depart="904" departLane="random" departSpeed="10" />
    <vehicle id="roundabout_222" type="standard_car" route="route4" depart="906" departLane="random" departSpeed="10" />
    <vehicle id="roundabout_223" type="standard_car" route="route1" depart="907" departLane="random" departSpeed="10" />
    <vehicle id="roundabout_224" type="standard_car" route="route2" depart="914" departLane="random" departSpeed="10" />
    <vehicle id="roundabout_225" type="standard_car" route="route2" depart="914" departLane="random" departSpeed="10" />
    <vehicle id="roundabout_226" type="standard_car" route="route4" depart="915" departLane="random" departSpeed="10" />
    <vehicle id="roundabout_227" type="standard_car" route="route4" depart="917" departLane="random" departSpeed="10" />
    <vehicle id="roundabout_228" type="standard_car" route="route4" depart="919" departLane="random" departSpeed="10" />
    <vehicle id="roundabout_229" type="standard_car" route="route3" depart="924" departLane="random" departSpeed="10" />
    <vehicle id="roundabout_230" type="standard_car" route="route4" depart="925" departLane="random" departSpeed="10" />
    <vehicle id="roundabout_231" type="standard_car" route="route3" depart="926" departLane="random" departSpeed="10" />
    <vehicle id="roundabout_232" type="standard_car" route="route3" depart="926" departLane="random" departSpeed="10" />
    <vehicle id="roundabout_233" type="standard_car" route="route4" depart="928" departLane="random" departSpeed="10" />
    <vehicle id="roundabout_234" type="standard_car" route="route1" depart="938" departLane="random" departSpeed="10" />
    <vehicle id="roundabout_235" type="standard_car" route="route2" depart="938" departLane="random" departSpeed="10" />
    <vehicle id="roundabout_236" type="standard_car" route="route2" depart="938" departLane="random" departSpeed="10" />
    <vehicle id="roundabout_237" type="standard_car" route="route1" depart="939" departLane="random" departSpeed="10" />
    <vehicle id="roundabout_238" type="standard_car" route="route1" depart="943" departLane="random" departSpeed="10" />
    <vehicle id="roundabout_239" type="standard_car" route="route2" depart="945" departLane="random" departSpeed="10" />
    <vehicle id="roundabout_240" type="standard_car" route="route3" depart="946" departLane="random" departSpeed="10" />
    <vehicle id="roundabout_241" type="standard_car" route="route7" depart="946" departLane="random" departSpeed="10" />