<routes>
    <!-- Define emergency vehicle type -->
    <vType id="emergency" accel="3.0" decel="6.0" color="1,0,0"
           maxSpeed="20" sigma="0.5" emergency="true" />
    <!-- Define standard vehicle type -->
    <vType id="standard_car" accel="1.0" decel="4.5" length="5.0"
           minGap="2.5" maxSpeed="25" sigma="0.5" />

    <route id="route1" edges="e1 r1 e2_out"/>
    <route id="route2" edges="e2 r2 e3_out"/>
    <route id="route3" edges="e3 r3 e4_out"/>
    <route id="route4" edges="e4 r4 e1_out"/>
    <route id="route5" edges="e1 r1 r2 e3_out"/>
    <route id="route6" edges="e2 r2 r3 e4_out"/>
    <route id="route7" edges="e3 r3 r4 e1_out"/>
    <route id="route8" edges="e4 r4 r1 e2_out"/>
    <vehicle id="roundabout_0" type="standard_car" route="route6" depart="19" departLane="random" departSpeed="10" />
    <vehicle id="roundabout_1" type="standard_car" route="route2" depart="97" departLane="random" departSpeed="10" />
    <vehicle id="roundabout_2" type="standard_car" route="route3" depart="202" departLane="random" departSpeed="10" />
    <vehicle id="roundabout_3" type="standard_car" route="route3" depart="213" departLane="random" departSpeed="10" />
    <vehicle id="roundabout_4" type="standard_car" route="route2" depart="227" departLane="random" departSpeed="10" />
    <vehicle id="roundabout_5" type="standard_car" route="route3" depart="245" departLane="random" departSpeed="10" />
    <vehicle id="roundabout_6" type="standard_car" route="route5" depart="246" departLane="random" departSpeed="10" />
    <vehicle id="roundabout_7" type="standard_car" route="route1" depart="247" departLane="random" departSpeed="10" />
    <vehicle id="roundabout_8" type="standard_car" route="route4" depart="252" departLane="random" departSpeed="10" />
    <vehicle id="roundabout_9" type="standard_car" route="route1" depart="255" departLane="random" departSpeed="10" />
    <vehicle id="roundabout_10" type="standard_car" route="route4" depart="293" departLane="random" departSpeed="10" />
    <vehicle id="roundabout_11" type="standard_car" route="route2" depart="300" departLane="random" departSpeed="10" />
    <vehicle id="roundabout_12" type="standard_car" route="route8" depart="305" departLane="random" departSpeed="10" />
    <vehicle id="roundabout_13" type="standard_car" route="route2" depart="359" departLane="random" departSpeed="10" />
    <vehicle id="roundabout_14" type="standard_car" route="route2" depart="384" departLane="random" departSpeed="10" />
    <vehicle id="roundabout_15" type="standard_car" route="route6" depart="407" departLane="random" departSpeed="10" />
    <vehicle id="roundabout_16" type="standard_car" route="route3" depart="422" departLane="random" departSpeed="10" />
    <vehicle id="roundabout_17" type="standard_car" route="route1" depart="447" departLane="random" departSpeed="10" />
    <vehicle id="roundabout_18" type="standard_car" route="route5" depart="470" departLane="random" departSpeed="10" />
    <vehicle id="roundabout_19" type="standard_car" route="route1" depart="470" departLane="random" departSpeed="10" />
    <vehicle id="roundabout_20" type="standard_car" route="route1" depart="472" departLane="random" departSpeed="10" />
    <vehicle id="roundabout_21" type="standard_car" route="route4" depart="472" departLane="random" departSpeed="10" />
    <vehicle id="emergency_0" type="emergency" route="route3" depart="472" departLane="random" departSpeed="10" />
    <vehicle id="roundabout_22" type="standard_car" route="route2" depart="485" departLane="random" departSpeed="10" />
    <vehicle id="roundabout_23" type="standard_car" route="route5" depart="492" departLane="random" departSpeed="10" />
    <vehicle id="roundabout_24" type="standard_car" route="route3" depart="537" departLane="random" departSpeed="10" />
    <vehicle id="roundabout_25" type="standard_car" route="route2" depart="560" departLane="random" departSpeed="10" />
    <vehicle id="roundabout_26" type="standard_car" route="route6" depart="579" departLane="random" departSpeed="10" />
    <vehicle id="roundabout_27" type="standard_car" route="route2" depart="591" departLane="random" departSpeed="10" />
    <vehicle id="roundabout_28" type="standard_car" route="route3" depart="594" departLane="random" departSpeed="10" />
    <vehicle id="roundabout_29" type="standard_car" route="route1" depart="607" departLane="random" departSpeed="10" />
    <vehicle id="roundabout_30" type="standard_car" route="route4" depart="628" departLane="random" departSpeed="10" />
    <vehicle id="roundabout_31" type="standard_car" route="route1" depart="647" departLane="random" departSpeed="10" />
    <vehicle id="roundabout_32" type="standard_car" route="route4" depart="655" departLane="random" departSpeed="10" />
    <vehicle id="roundabout_33" type="standard_car" route="route2" depart="656" departLane="random" departSpeed="10" />
    <vehicle id="roundabout_34" type="standard_car" route="route6" depart="672" departLane="random" departSpeed="10" />
    <vehicle id="roundabout_35" type="standard_car" route="route2" depart="689" departLane="random" departSpeed="10" />
    <vehicle id="roundabout_36" type="standard_car" route="route3" depart="691" departLane="random" departSpeed="10" />
    <vehicle id="roundabout_37" type="standard_car" route="route1" depart="692" departLane="random" departSpeed="10" />
    <vehicle id="roundabout_38" type="standard_car" route="route4" depart="697" departLane="random" departSpeed="10" />
    <vehicle id="roundabout_39" type="standard_car" route="route2" depart="700" departLane="random" departSpeed="10" />
    <vehicle id="roundabout_40" type="standard_car" route="route1" depart="717" departLane="random" departSpeed="10" />
    <vehicle id="roundabout_41" type="standard_car" route="route3" depart="717" departLane="random" departSpeed="10" />
    <vehicle id="roundabout_42" type="standard_car" route="route3" depart="743" departLane="random" departSpeed="10" />
    <vehicle id="roundabout_43" type="standard_car" route="route4" depart="765" departLane="random" departSpeed="10" />
    <vehicle id="roundabout_44" type="standard_car" route="route2" depart="777" departLane="random" departSpeed="10" />
    <vehicle id="roundabout_45" type="standard_car" route="route1" depart="783" departLane="random" departSpeed="10" />
    <vehicle id="roundabout_46" type="standard_car" route="route3" depart="817" departLane="random" departSpeed="10" />
    <vehicle id="roundabout_47" type="standard_car" route="route1" depart="835" departLane="random" departSpeed="10" />
    <vehicle id="roundabout_48" type="standard_car" route="route4" depart="839" departLane="random" departSpeed="10" />
    <vehicle id="roundabout_49" type="standard_car" route="route2" depart="846" departLane="random" departSpeed="10" />
    <vehicle id="roundabout_50" type="standard_car" route="route1" depart="858" departLane="random" departSpeed="10" />
    <vehicle id="roundabout_51" type="standard_car" route="route3" depart="861" departLane="random" departSpeed="10" />
    <vehicle id="roundabout_52" type="standard_car" route="route3" depart="874" departLane="random" departSpeed="10" />
    <vehicle id="roundabout_53" type="standard_car" route="route4" depart="878" departLane="random" departSpeed="10" />
    <vehicle id="roundabout_54" type="standard_car" route="route8" depart="910" departLane="random" departSpeed="10" />
    <vehicle id="roundabout_55" type="standard_car" route="route4" depart="927" departLane="random" departSpeed="10" />
    <vehicle id="roundabout_56" type="standard_car" route="route3" depart="930" departLane="random" departSpeed="10" />
    <vehicle id="roundabout_57" type="standard_car" route="route2" depart="936" departLane="random" departSpeed="10" />
    <vehicle id="roundabout_58" type="standard_car" route="route7" depart="943" departLane="random" departSpeed="10" />
    <vehicle id="roundabout_59" type="standard_car" route="route2" depart="957" departLane="random" departSpeed="10" />
    <vehicle id="roundabout_60" type="standard_car" route="route3" depart="971" departLane="random" departSpeed="10" />
    <vehicle id="roundabout_61" type="standard_car" route="route3" depart="988" departLane="random" departSpeed="10" />
    <vehicle id="roundabout_62" type="standard_car" route="route2" depart="995" departLane="random" departSpeed="10" />
    <vehicle id="roundabout_63" type="standard_car" route="route2" depart="999" departLane="random" departSpeed="10" />
    <vehicle id="roundabout_64" type="standard_car" route="route4" depart="1000" departLane="random" departSpeed="10" />
    <vehicle id="roundabout_65" type="standard_car" route="route1" depart="1010" departLane="random" departSpeed="10" />
    <vehicle id="roundabout_66" type="standard_car" route="route1" depart="1030" departLane="random" departSpeed="10" />
    <vehicle id="roundabout_67" type="standard_car" route="route8" depart="1033" departLane="random" departSpeed="10" />
    <vehicle id="roundabout_68" type="standard_car" route="route1" depart="1049" departLane="random" departSpeed="10" />
    <vehicle id="roundabout_69" type="standard_car" route="route2" depart="1061" departLane="random" departSpeed="10" />
    <vehicle id="roundabout_70" type="standard_car" route="route3" depart="1080" departLane="random" departSpeed="10" />
    <vehicle id="roundabout_71" type="standard_car" route="route4" depart="1104" departLane="random" departSpeed="10" />
    <vehicle id="roundabout_72" type="standard_car" route="route2" depart="1108" departLane="random" departSpeed="10" />
    <vehicle id="roundabout_73" type="standard_car" route="route3" depart="1112" departLane="random" departSpeed="10" />
    <vehicle id="roundabout_74" type="standard_car" route="route5" depart="1132" departLane="random" departSpeed="10" />
    <vehicle id="roundabout_75" type="standard_car" route="route3" depart="1172" departLane="random" departSpeed="10" />
    <vehicle id="roundabout_76" type="standard_car" route="route3" depart="1177" departLane="random" departSpeed="10" />
    <vehicle id="roundabout_77" type="standard_car" route="route2" depart="1179" departLane="random" departSpeed="10" />
    <vehicle id="roundabout_78" type="standard_car" route="route2" depart="1197" departLane="random" departSpeed="10" />
    <vehicle id="roundabout_79" type="standard_car" route="route1" depart="1224" departLane="random" departSpeed="10" />
    <vehicle id="emergency_1" type="emergency" route="route6" depart="1227" departLane="random" departSpeed="10" />
    <vehicle id="roundabout_80" type="standard_car" route="route4" depart="1245" departLane="random" departSpeed="10" />
    <vehicle id="roundabout_81" type="standard_car" route="route4" depart="1261" departLane="random" departSpeed="10" />
    <vehicle id="roundabout_82" type="standard_car" route="route3" depart="1280" departLane="random" departSpeed="10" />
    <vehicle id="roundabout_83" type="standard_car" route="route1" depart="1282" departLane="random" departSpeed="10" />
    <vehicle id="roundabout_84" type="standard_car" route="route1" depart="1304" departLane="random" departSpeed="10" />
    <vehicle id="roundabout_85" type="standard_car" route="route1" depart="1316" departLane="random" departSpeed="10" />
    <vehicle id="roundabout_86" type="standard_car" route="route4" depart="1316" departLane="random" departSpeed="10" />
    <vehicle id="roundabout_87" type="standard_car" route="route8" depart="1322" departLane="random" departSpeed="10" />
    <vehicle id="roundabout_88" type="standard_car" route="route4" depart="1323" departLane="random" departSpeed="10" />
    <vehicle id="roundabout_89" type="standard_car" route="route8" depart="1327" departLane="random" departSpeed="10" />
    <vehicle id="roundabout_90" type="standard_car" route="route1" depart="1331" departLane="random" departSpeed="10" />
    <vehicle id="roundabout_91" type="standard_car" route="route2" depart="1346" departLane="random" departSpeed="10" />
    <vehicle id="roundabout_92" type="standard_car" route="route6" depart="1387" departLane="random" departSpeed="10" />
    <vehicle id="roundabout_93" type="standard_car" route="route1" depart="1392" departLane="random" departSpeed="10" />
    <vehicle id="roundabout_94" type="standard_car" route="route7" depart="1469" departLane="random" departSpeed="10" />
    <vehicle id="roundabout_95" type="standard_car" route="route3" depart="1480" departLane="random" departSpeed="10" />
    <vehicle id="roundabout_96" type="standard_car" route="route3" depart="1485" departLane="random" departSpeed="10" />
    <vehicle id="roundabout_97" type="standard_car" route="route2" depart="1531" departLane="random" departSpeed="10" />
    <vehicle id="roundabout_98" type="standard_car" route="route3" depart="1552" departLane="random" departSpeed="10" />
    <vehicle id="roundabout_99" type="standard_car" route="route2" depart="1558" departLane="random" departSpeed="10" />
    <vehicle id="roundabout_100" type="standard_car" route="route2" depart="1571" departLane="random" departSpeed="10" />
    <vehicle id="roundabout_101" type="standard_car" route="route3" depart="1577" departLane="random" departSpeed="10" />
    <vehicle id="roundabout_102" type="standard_car" route="route3" depart="1584" departLane="random" departSpeed="10" />
    <vehicle id="roundabout_103" type="standard_car" route="route4" depart="1584" departLane="random" departSpeed="10" />
    <vehicle id="roundabout_104" type="standard_car" route="route4" depart="1611" departLane="random" departSpeed="10" />
    <vehicle id="roundabout_105" type="standard_car" route="route4" depart="1615" departLane="random" departSpeed="10" />
    <vehicle id="roundabout_106" type="standard_car" route="route7" depart="1622" departLane="random" departSpeed="10" />
    <vehicle id="roundabout_107" type="standard_car" route="route8" depart="1628" departLane="random" departSpeed="10" />
    <vehicle id="roundabout_108" type="standard_car" route="route6" depart="1630" departLane="random" departSpeed="10" />
    <vehicle id="roundabout_109" type="standard_car" route="route2" depart="1633" departLane="random" departSpeed="10" />
    <vehicle id="roundabout_110" type="standard_car" route="route4" depart="1649" departLane="random" departSpeed="10" />
    <vehicle id="roundabout_111" type="standard_car" route="route5" depart="1651" departLane="random" departSpeed="10" />
    <vehicle id="roundabout_112" type="standard_car" route="route3" depart="1662" departLane="random" departSpeed="10" />
    <vehicle id="roundabout_113" type="standard_car" route="route2" depart="1663" departLane="random" departSpeed="10" />
    <vehicle id="roundabout_114" type="standard_car" route="route2" depart="1673" departLane="random" departSpeed="10" />
    <vehicle id="roundabout_115" type="standard_car" route="route1" depart="1676" departLane="random" departSpeed="10" />
    <vehicle id="roundabout_116" type="standard_car" route="route4" depart="1680" departLane="random" departSpeed="10" />
    <vehicle id="roundabout_117" type="standard_car" route="route4" depart="1690" departLane="random" departSpeed="10" />
    <vehicle id="roundabout_118" type="standard_car" route="route1" depart="1692" departLane="random" departSpeed="10" />
    <vehicle id="roundabout_119" type="standard_car" route="route4" depart="1698" departLane="random" departSpeed="10" />
    <vehicle id="emergency_2" type="emergency" route="route4" depart="1698" departLane="random" departSpeed="10" />
    <vehicle id="roundabout_120" type="standard_car" route="route4" depart="1738" departLane="random" departSpeed="10" />
    <vehicle id="roundabout_121" type="standard_car" route="route1" depart="1763" departLane="random" departSpeed="10" />
    <vehicle id="roundabout_122" type="standard_car" route="route3" depart="1764" departLane="random" departSpeed="10" />
    <vehicle id="roundabout_123" type="standard_car" route="route3" depart="1770" departLane="random" departSpeed="10" />
    <vehicle id="roundabout_124" type="standard_car" route="route4" depart="1775" departLane="random" departSpeed="10" />
    <vehicle id="roundabout_125" type="standard_car" route="route3" depart="1779" departLane="random" departSpeed="10" />
    <vehicle id="roundabout_126" type="standard_car" route="route2" depart="1779" departLane="random" departSpeed="10" />
    <vehicle id="roundabout_127" type="standard_car" route="route3" depart="1794" departLane="random" departSpeed="10" />
    <vehicle id="roundabout_128" type="standard_car" route="route3" depart="1818" departLane="random" departSpeed="10" />
    <vehicle id="roundabout_129" type="standard_car" route="route4" depart="1878" departLane="random" departSpeed="10" />
    <vehicle id="roundabout_130" type="standard_car" route="route8" depart="1879" departLane="random" departSpeed="10" />
    <vehicle id="roundabout_131" type="standard_car" route="route2" depart="1893" departLane="random" departSpeed="10" />
    <vehicle id="roundabout_132" type="standard_car" route="route3" depart="1896" departLane="random" departSpeed="10" />
    <vehicle id="roundabout_133" type="standard_car" route="route1" depart="1918" departLane="random" departSpeed="10" />
    <vehicle id="roundabout_134" type="standard_car" route="route8" depart="1935" departLane="random" departSpeed="10" />
    <vehicle id="roundabout_135" type="standard_car" route="route4" depart="1939" departLane="random" departSpeed="10" />
    <vehicle id="roundabout_136" type="standard_car" route="route1" depart="1950" departLane="random" departSpeed="10" />
    <vehicle id="roundabout_137" type="standard_car" route="route4" depart="1953" departLane="random" departSpeed="10" />
    <vehicle id="roundabout_138" type="standard_car" route="route2" depart="1954" departLane="random" departSpeed="10" />
    <vehicle id="roundabout_139" type="standard_car" route="route3" depart="1960" departLane="random" departSpeed="10" />
    <vehicle id="roundabout_140" type="standard_car" route="route4" depart="1966" departLane="random" departSpeed="10" />
    <vehicle id="roundabout_141" type="standard_car" route="route3" depart="1974" departLane="random" departSpeed="10" />
    <vehicle id="roundabout_142" type="standard_car" route="route3" depart="2007" departLane="random" departSpeed="10" />
    <vehicle id="roundabout_143" type="standard_car" route="route1" depart="2011" departLane="random" departSpeed="10" />
    <vehicle id="roundabout_144" type="standard_car" route="route5" depart="2032" departLane="random" departSpeed="10" />
    <vehicle id="roundabout_145" type="standard_car" route="route5" depart="2048" departLane="random" departSpeed="10" />
    <vehicle id="roundabout_146" type="standard_car" route="route4" depart="2075" departLane="random" departSpeed="10" />
    <vehicle id="roundabout_147" type="standard_car" route="route3" depart="2101" departLane="random" departSpeed="10" />
    <vehicle id="roundabout_148" type="standard_car" route="route1" depart="2105" departLane="random" departSpeed="10" />
    <vehicle id="roundabout_149" type="standard_car" route="route1" depart="2111" departLane="random" departSpeed="10" />
    <vehicle id="roundabout_150" type="standard_car" route="route3" depart="2114" departLane="random" departSpeed="10" />
    <vehicle id="roundabout_151" type="standard_car" route="route5" depart="2120" departLane="random" departSpeed="10" />
    <vehicle id="roundabout_152" type="standard_car" route="route3" depart="2122" departLane="random" departSpeed="10" />
    <vehicle id="roundabout_153" type="standard_car" route="route8" depart="2122" departLane="random" departSpeed="10" />
    <vehicle id="roundabout_154" type="standard_car" route="route1" depart="2128" departLane="random" departSpeed="10" />
    <vehicle id="roundabout_155" type="standard_car" route="route2" depart="2131" departLane="random" departSpeed="10" />
    <vehicle id="roundabout_156" type="standard_car" route="route5" depart="2136" departLane="random" departSpeed="10" />
    <vehicle id="roundabout_157" type="standard_car" route="route3" depart="2189" departLane="random" departSpeed="10" />
    <vehicle id="roundabout_158" type="standard_car" route="route4" depart="2246" departLane="random" departSpeed="10" />
    <vehicle id="roundabout_159" type="standard_car" route="route2" depart="2286" departLane="random" departSpeed="10" />
    <vehicle id="roundabout_160" type="standard_car" route="route4" depart="2286" departLane="random" departSpeed="10" />
    <vehicle id="roundabout_161" type="standard_car" route="route2" depart="2301" departLane="random" departSpeed="10" />
    <vehicle id="roundabout_162" type="standard_car" route="route2" depart="2309" departLane="random" departSpeed="10" />
    <vehicle id="roundabout_163" type="standard_car" route="route1" depart="2310" departLane="random" departSpeed="10" />
    <vehicle id="roundabout_164" type="standard_car" route="route4" depart="2392" departLane="random" departSpeed="10" />
    <vehicle id="roundabout_165" type="standard_car" route="route4" depart="2415" departLane="random" departSpeed="10" />
    <vehicle id="roundabout_166" type="standard_car" route="route2" depart="2445" departLane="random" departSpeed="10" />
    <vehicle id="roundabout_167" type="standard_car" route="route6" depart="2466" departLane="random" departSpeed="10" />
    <vehicle id="roundabout_168" type="standard_car" route="route5" depart="2524" departLane="random" departSpeed="10" />
    <vehicle id="roundabout_169" type="standard_car" route="route7" depart="2540" departLane="random" departSpeed="10" />
    <vehicle id="roundabout_170" type="standard_car" route="route2" depart="2603" departLane="random" departSpeed="10" />
    <vehicle id="roundabout_171" type="standard_car" route="route5" depart="2611" departLane="random" departSpeed="10" />
    <vehicle id="roundabout_172" type="standard_car" route="route4" depart="2611" departLane="random" departSpeed="10" />
    <vehicle id="roundabout_173" type="standard_car" route="route3" depart="2638" departLane="random" departSpeed="10" />
    <vehicle id="roundabout_174" type="standard_car" route="route7" depart="2652" departLane="random" departSpeed="10" />
    <vehicle id="roundabout_175" type="standard_car" route="route6" depart="2700" departLane="random" departSpeed="10" />
    <vehicle id="roundabout_176" type="standard_car" route="route7" depart="2707" departLane="random" departSpeed="10" />
    <vehicle id="roundabout_177" type="standard_car" route="route1" depart="2752" departLane="random" departSpeed="10" />
    <vehicle id="roundabout_178" type="standard_car" route="route2" depart="2752" departLane="random" departSpeed="10" />
    <vehicle id="roundabout_179" type="standard_car" route="route2" depart="2779" departLane="random" departSpeed="10" />
    <vehicle id="roundabout_180" type="standard_car" route="route6" depart="2784" departLane="random" departSpeed="10" />
    <vehicle id="roundabout_181" type="standard_car" route="route8" depart="2784" departLane="random" departSpeed="10" />
    <vehicle id="roundabout_182" type="standard_car" route="route3" depart="2882" departLane="random" departSpeed="10" />
    <vehicle id="roundabout_183" type="standard_car" route="route6" depart="2896" departLane="random" departSpeed="10" />
    <vehicle id="roundabout_184" type="standard_car" route="route3" depart="2916" departLane="random" departSpeed="10" />
    <vehicle id="roundabout_185" type="standard_car" route="route2" depart="2931" departLane="random" departSpeed="10" />
    <vehicle id="roundabout_186" type="standard_car" route="route1" depart="2951" departLane="random" departSpeed="10" />
    <vehicle id="roundabout_187" type="standard_car" route="route7" depart="2956" departLane="random" departSpeed="10" />
    <vehicle id="roundabout_188" type="standard_car" route="route4" depart="3062" departLane="random" departSpeed="10" />
    <vehicle id="roundabout_189" type="standard_car" route="route2" depart="3105" departLane="random" departSpeed="10" />
    <vehicle id="roundabout_190" type="standard_car" route="route1" depart="3110" departLane="random" departSpeed="10" />
    <vehicle id="roundabout_191" type="standard_car" route="route3" depart="3204" departLane="random" departSpeed="10" />
    <vehicle id="roundabout_192" type="standard_car" route="route4" depart="3293" departLane="random" departSpeed="10" />
    <vehicle id="roundabout_193" type="standard_car" route="route7" depart="3329" departLane="random" departSpeed="10" />
    <vehicle id="roundabout_194" type="standard_car" route="route7" depart="3343" departLane="random" departSpeed="10" />
    <vehicle id="roundabout_195" type="standard_car" route="route1" depart="3364" departLane="random" departSpeed="10" />
    <vehicle id="roundabout_196" type="standard_car" route="route3" depart="3371" departLane="random" departSpeed="10" />
    <vehicle id="roundabout_197" type="standard_car" route="route5" depart="3808" departLane="random" departSpeed="10" />
    <vehicle id="roundabout_198" type="standard_car" route="route5" depart="3817" departLane="random" departSpeed="10" />
    <vehicle id="roundabout_199" type="standard_car" route="route3" depart="4381" departLane="random" departSpeed="10" />
</routes>
