<routes>
    <!-- Define emergency vehicle type -->
    <vType id="emergency" accel="3.0" decel="6.0" color="1,0,0"
           maxSpeed="20" sigma="0.5" emergency="true" />
    <!-- Define standard vehicle type -->
    <vType id="standard_car" accel="1.0" decel="4.5" length="5.0"
           minGap="2.5" maxSpeed="25" sigma="0.5" />

    <route id="route1" edges="e1 r1 e2_out"/>
    <route id="route2" edges="e2 r2 e3_out"/>
    <route id="route3" edges="e3 r3 e4_out"/>
    <route id="route4" edges="e4 r4 e1_out"/>
    <route id="route5" edges="e1 r1 r2 e3_out"/>
    <route id="route6" edges="e2 r2 r3 e4_out"/>
    <route id="route7" edges="e3 r3 r4 e1_out"/>
    <route id="route8" edges="e4 r4 r1 e2_out"/>
    <vehicle id="emergency_0" type="emergency" route="route4" depart="62" departLane="random" departSpeed="10" />
    <vehicle id="roundabout_0" type="standard_car" route="route5" depart="113" departLane="random" departSpeed="10" />
    <vehicle id="emergency_1" type="emergency" route="route2" depart="160" departLane="random" departSpeed="10" />
    <vehicle id="roundabout_1" type="standard_car" route="route2" depart="219" departLane="random" departSpeed="10" />
    <vehicle id="roundabout_2" type="standard_car" route="route8" depart="220" departLane="random" departSpeed="10" />
    <vehicle id="roundabout_3" type="standard_car" route="route2" depart="261" departLane="random" departSpeed="10" />
    <vehicle id="roundabout_4" type="standard_car" route="route8" depart="263" departLane="random" departSpeed="10" />
    <vehicle id="roundabout_5" type="standard_car" route="route3" depart="289" departLane="random" departSpeed="10" />
    <vehicle id="roundabout_6" type="standard_car" route="route4" depart="318" departLane="random" departSpeed="10" />
    <vehicle id="roundabout_7" type="standard_car" route="route4" depart="350" departLane="random" departSpeed="10" />
    <vehicle id="roundabout_8" type="standard_car" route="route7" depart="352" departLane="random" departSpeed="10" />
    <vehicle id="roundabout_9" type="standard_car" route="route3" depart="360" departLane="random" departSpeed="10" />
    <vehicle id="roundabout_10" type="standard_car" route="route3" depart="363" departLane="random" departSpeed="10" />
    <vehicle id="roundabout_11" type="standard_car" route="route3" depart="378" departLane="random" departSpeed="10" />
    <vehicle id="roundabout_12" type="standard_car" route="route2" depart="394" departLane="random" departSpeed="10" />
    <vehicle id="roundabout_13" type="standard_car" route="route1" depart="402" departLane="random" departSpeed="10" />
    <vehicle id="roundabout_14" type="standard_car" route="route8" depart="410" departLane="random" departSpeed="10" />
    <vehicle id="roundabout_15" type="standard_car" route="route3" depart="464" departLane="random" departSpeed="10" />
    <vehicle id="roundabout_16" type="standard_car" route="route6" depart="478" departLane="random" departSpeed="10" />
    <vehicle id="roundabout_17" type="standard_car" route="route1" depart="510" departLane="random" departSpeed="10" />
    <vehicle id="roundabout_18" type="standard_car" route="route7" depart="518" departLane="random" departSpeed="10" />
    <vehicle id="roundabout_19" type="standard_car" route="route4" depart="547" departLane="random" departSpeed="10" />
    <vehicle id="roundabout_20" type="standard_car" route="route2" depart="553" departLane="random" departSpeed="10" />
    <vehicle id="roundabout_21" type="standard_car" route="route4" depart="554" departLane="random" departSpeed="10" />
    <vehicle id="roundabout_22" type="standard_car" route="route2" depart="564" departLane="random" departSpeed="10" />
    <vehicle id="roundabout_23" type="standard_car" route="route7" depart="564" departLane="random" departSpeed="10" />
    <vehicle id="roundabout_24" type="standard_car" route="route4" depart="568" departLane="random" departSpeed="10" />
    <vehicle id="roundabout_25" type="standard_car" route="route2" depart="598" departLane="random" departSpeed="10" />
    <vehicle id="roundabout_26" type="standard_car" route="route6" depart="605" departLane="random" departSpeed="10" />
    <vehicle id="roundabout_27" type="standard_car" route="route1" depart="609" departLane="random" departSpeed="10" />
    <vehicle id="roundabout_28" type="standard_car" route="route1" depart="626" departLane="random" departSpeed="10" />
    <vehicle id="roundabout_29" type="standard_car" route="route4" depart="634" departLane="random" departSpeed="10" />
    <vehicle id="roundabout_30" type="standard_car" route="route6" depart="705" departLane="random" departSpeed="10" />
    <vehicle id="roundabout_31" type="standard_car" route="route5" depart="719" departLane="random" departSpeed="10" />
    <vehicle id="roundabout_32" type="standard_car" route="route7" depart="722" departLane="random" departSpeed="10" />
    <vehicle id="roundabout_33" type="standard_car" route="route7" depart="729" departLane="random" departSpeed="10" />
    <vehicle id="roundabout_34" type="standard_car" route="route3" depart="750" departLane="random" departSpeed="10" />
    <vehicle id="roundabout_35" type="standard_car" route="route3" depart="764" departLane="random" departSpeed="10" />
    <vehicle id="roundabout_36" type="standard_car" route="route5" depart="767" departLane="random" departSpeed="10" />
    <vehicle id="roundabout_37" type="standard_car" route="route2" depart="772" departLane="random" departSpeed="10" />
    <vehicle id="roundabout_38" type="standard_car" route="route2" depart="775" departLane="random" departSpeed="10" />
    <vehicle id="roundabout_39" type="standard_car" route="route4" depart="789" departLane="random" departSpeed="10" />
    <vehicle id="roundabout_40" type="standard_car" route="route3" depart="792" departLane="random" departSpeed="10" />
    <vehicle id="roundabout_41" type="standard_car" route="route2" depart="799" departLane="random" departSpeed="10" />
    <vehicle id="roundabout_42" type="standard_car" route="route7" depart="812" departLane="random" departSpeed="10" />
    <vehicle id="roundabout_43" type="standard_car" route="route1" depart="846" departLane="random" departSpeed="10" />
    <vehicle id="roundabout_44" type="standard_car" route="route4" depart="846" departLane="random" departSpeed="10" />
    <vehicle id="roundabout_45" type="standard_car" route="route3" depart="848" departLane="random" departSpeed="10" />
    <vehicle id="roundabout_46" type="standard_car" route="route7" depart="864" departLane="random" departSpeed="10" />
    <vehicle id="roundabout_47" type="standard_car" route="route3" depart="894" departLane="random" departSpeed="10" />
    <vehicle id="roundabout_48" type="standard_car" route="route5" depart="908" departLane="random" departSpeed="10" />
    <vehicle id="roundabout_49" type="standard_car" route="route4" depart="913" departLane="random" departSpeed="10" />
    <vehicle id="roundabout_50" type="standard_car" route="route3" depart="948" departLane="random" departSpeed="10" />
    <vehicle id="roundabout_51" type="standard_car" route="route1" depart="962" departLane="random" departSpeed="10" />
    <vehicle id="roundabout_52" type="standard_car" route="route4" depart="969" departLane="random" departSpeed="10" />
    <vehicle id="roundabout_53" type="standard_car" route="route3" depart="993" departLane="random" departSpeed="10" />
    <vehicle id="roundabout_54" type="standard_car" route="route3" depart="1057" departLane="random" departSpeed="10" />
    <vehicle id="roundabout_55" type="standard_car" route="route4" depart="1059" departLane="random" departSpeed="10" />
    <vehicle id="roundabout_56" type="standard_car" route="route2" depart="1062" departLane="random" departSpeed="10" />
    <vehicle id="roundabout_57" type="standard_car" route="route1" depart="1066" departLane="random" departSpeed="10" />
    <vehicle id="roundabout_58" type="standard_car" route="route3" depart="1066" departLane="random" departSpeed="10" />
    <vehicle id="roundabout_59" type="standard_car" route="route4" depart="1074" departLane="random" departSpeed="10" />
    <vehicle id="roundabout_60" type="standard_car" route="route3" depart="1077" departLane="random" departSpeed="10" />
    <vehicle id="roundabout_61" type="standard_car" route="route4" depart="1077" departLane="random" departSpeed="10" />
    <vehicle id="roundabout_62" type="standard_car" route="route3" depart="1082" departLane="random" departSpeed="10" />
    <vehicle id="roundabout_63" type="standard_car" route="route4" depart="1087" departLane="random" departSpeed="10" />
    <vehicle id="roundabout_64" type="standard_car" route="route3" depart="1107" departLane="random" departSpeed="10" />
    <vehicle id="roundabout_65" type="standard_car" route="route4" depart="1114" departLane="random" departSpeed="10" />
    <vehicle id="roundabout_66" type="standard_car" route="route4" depart="1116" departLane="random" departSpeed="10" />
    <vehicle id="roundabout_67" type="standard_car" route="route4" depart="1130" departLane="random" departSpeed="10" />
    <vehicle id="roundabout_68" type="standard_car" route="route6" depart="1141" departLane="random" departSpeed="10" />
    <vehicle id="roundabout_69" type="standard_car" route="route7" depart="1156" departLane="random" departSpeed="10" />
    <vehicle id="roundabout_70" type="standard_car" route="route3" depart="1157" departLane="random" departSpeed="10" />
    <vehicle id="roundabout_71" type="standard_car" route="route3" depart="1160" departLane="random" departSpeed="10" />
    <vehicle id="roundabout_72" type="standard_car" route="route4" depart="1174" departLane="random" departSpeed="10" />
    <vehicle id="roundabout_73" type="standard_car" route="route3" depart="1183" departLane="random" departSpeed="10" />
    <vehicle id="roundabout_74" type="standard_car" route="route4" depart="1184" departLane="random" departSpeed="10" />
    <vehicle id="roundabout_75" type="standard_car" route="route2" depart="1185" departLane="random" departSpeed="10" />
    <vehicle id="roundabout_76" type="standard_car" route="route7" depart="1197" departLane="random" departSpeed="10" />
    <vehicle id="roundabout_77" type="standard_car" route="route1" depart="1214" departLane="random" departSpeed="10" />
    <vehicle id="roundabout_78" type="standard_car" route="route3" depart="1231" departLane="random" departSpeed="10" />
    <vehicle id="roundabout_79" type="standard_car" route="route1" depart="1247" departLane="random" departSpeed="10" />
    <vehicle id="roundabout_80" type="standard_car" route="route8" depart="1253" departLane="random" departSpeed="10" />
    <vehicle id="roundabout_81" type="standard_car" route="route1" depart="1255" departLane="random" departSpeed="10" />
    <vehicle id="roundabout_82" type="standard_car" route="route3" depart="1271" departLane="random" departSpeed="10" />
    <vehicle id="roundabout_83" type="standard_car" route="route3" depart="1322" departLane="random" departSpeed="10" />
    <vehicle id="roundabout_84" type="standard_car" route="route3" depart="1323" departLane="random" departSpeed="10" />
    <vehicle id="roundabout_85" type="standard_car" route="route8" depart="1346" departLane="random" departSpeed="10" />
    <vehicle id="roundabout_86" type="standard_car" route="route2" depart="1348" departLane="random" departSpeed="10" />
    <vehicle id="roundabout_87" type="standard_car" route="route7" depart="1358" departLane="random" departSpeed="10" />
    <vehicle id="roundabout_88" type="standard_car" route="route2" depart="1362" departLane="random" departSpeed="10" />
    <vehicle id="roundabout_89" type="standard_car" route="route2" depart="1370" departLane="random" departSpeed="10" />
    <vehicle id="roundabout_90" type="standard_car" route="route8" depart="1372" departLane="random" departSpeed="10" />
    <vehicle id="roundabout_91" type="standard_car" route="route2" depart="1374" departLane="random" departSpeed="10" />
    <vehicle id="roundabout_92" type="standard_car" route="route3" depart="1398" departLane="random" departSpeed="10" />
    <vehicle id="roundabout_93" type="standard_car" route="route5" depart="1405" departLane="random" departSpeed="10" />
    <vehicle id="roundabout_94" type="standard_car" route="route1" depart="1406" departLane="random" departSpeed="10" />
    <vehicle id="roundabout_95" type="standard_car" route="route3" depart="1410" departLane="random" departSpeed="10" />
    <vehicle id="roundabout_96" type="standard_car" route="route4" depart="1423" departLane="random" departSpeed="10" />
    <vehicle id="roundabout_97" type="standard_car" route="route1" depart="1434" departLane="random" departSpeed="10" />
    <vehicle id="roundabout_98" type="standard_car" route="route4" depart="1445" departLane="random" departSpeed="10" />
    <vehicle id="roundabout_99" type="standard_car" route="route1" depart="1464" departLane="random" departSpeed="10" />
    <vehicle id="roundabout_100" type="standard_car" route="route2" depart="1488" departLane="random" departSpeed="10" />
    <vehicle id="roundabout_101" type="standard_car" route="route3" depart="1495" departLane="random" departSpeed="10" />
    <vehicle id="roundabout_102" type="standard_car" route="route6" depart="1514" departLane="random" departSpeed="10" />
    <vehicle id="roundabout_103" type="standard_car" route="route3" depart="1525" departLane="random" departSpeed="10" />
    <vehicle id="roundabout_104" type="standard_car" route="route1" depart="1525" departLane="random" departSpeed="10" />
    <vehicle id="roundabout_105" type="standard_car" route="route3" depart="1527" departLane="random" departSpeed="10" />
    <vehicle id="roundabout_106" type="standard_car" route="route3" depart="1527" departLane="random" departSpeed="10" />
    <vehicle id="roundabout_107" type="standard_car" route="route2" depart="1528" departLane="random" departSpeed="10" />
    <vehicle id="roundabout_108" type="standard_car" route="route1" depart="1542" departLane="random" departSpeed="10" />
    <vehicle id="roundabout_109" type="standard_car" route="route4" depart="1546" departLane="random" departSpeed="10" />
    <vehicle id="roundabout_110" type="standard_car" route="route3" depart="1572" departLane="random" departSpeed="10" />
    <vehicle id="roundabout_111" type="standard_car" route="route3" depart="1574" departLane="random" departSpeed="10" />
    <vehicle id="roundabout_112" type="standard_car" route="route4" depart="1592" departLane="random" departSpeed="10" />
    <vehicle id="roundabout_113" type="standard_car" route="route1" depart="1592" departLane="random" departSpeed="10" />
    <vehicle id="roundabout_114" type="standard_car" route="route2" depart="1603" departLane="random" departSpeed="10" />
    <vehicle id="roundabout_115" type="standard_car" route="route1" depart="1625" departLane="random" departSpeed="10" />
    <vehicle id="roundabout_116" type="standard_car" route="route4" depart="1625" departLane="random" departSpeed="10" />
    <vehicle id="roundabout_117" type="standard_car" route="route8" depart="1634" departLane="random" departSpeed="10" />
    <vehicle id="roundabout_118" type="standard_car" route="route2" depart="1638" departLane="random" departSpeed="10" />
    <vehicle id="roundabout_119" type="standard_car" route="route4" depart="1643" departLane="random" departSpeed="10" />
    <vehicle id="roundabout_120" type="standard_car" route="route4" depart="1643" departLane="random" departSpeed="10" />
    <vehicle id="roundabout_121" type="standard_car" route="route4" depart="1646" departLane="random" departSpeed="10" />
    <vehicle id="roundabout_122" type="standard_car" route="route8" depart="1661" departLane="random" departSpeed="10" />
    <vehicle id="roundabout_123" type="standard_car" route="route4" depart="1662" departLane="random" departSpeed="10" />
    <vehicle id="roundabout_124" type="standard_car" route="route4" depart="1672" departLane="random" departSpeed="10" />
    <vehicle id="roundabout_125" type="standard_car" route="route1" depart="1686" departLane="random" departSpeed="10" />
    <vehicle id="roundabout_126" type="standard_car" route="route2" depart="1690" departLane="random" departSpeed="10" />
    <vehicle id="roundabout_127" type="standard_car" route="route1" depart="1698" departLane="random" departSpeed="10" />
    <vehicle id="roundabout_128" type="standard_car" route="route2" depart="1700" departLane="random" departSpeed="10" />
    <vehicle id="roundabout_129" type="standard_car" route="route2" depart="1717" departLane="random" departSpeed="10" />
    <vehicle id="roundabout_130" type="standard_car" route="route8" depart="1718" departLane="random" departSpeed="10" />
    <vehicle id="roundabout_131" type="standard_car" route="route3" depart="1719" departLane="random" departSpeed="10" />
    <vehicle id="roundabout_132" type="standard_car" route="route4" depart="1721" departLane="random" departSpeed="10" />
    <vehicle id="roundabout_133" type="standard_car" route="route1" depart="1725" departLane="random" departSpeed="10" />
    <vehicle id="roundabout_134" type="standard_car" route="route4" depart="1730" departLane="random" departSpeed="10" />
    <vehicle id="roundabout_135" type="standard_car" route="route1" depart="1736" departLane="random" departSpeed="10" />
    <vehicle id="roundabout_136" type="standard_car" route="route7" depart="1753" departLane="random" departSpeed="10" />
    <vehicle id="roundabout_137" type="standard_car" route="route1" depart="1760" departLane="random" departSpeed="10" />
    <vehicle id="roundabout_138" type="standard_car" route="route4" depart="1765" departLane="random" departSpeed="10" />
    <vehicle id="roundabout_139" type="standard_car" route="route4" depart="1786" departLane="random" departSpeed="10" />
    <vehicle id="emergency_2" type="emergency" route="route4" depart="1792" departLane="random" departSpeed="10" />
    <vehicle id="roundabout_140" type="standard_car" route="route8" depart="1804" departLane="random" departSpeed="10" />
    <vehicle id="roundabout_141" type="standard_car" route="route2" depart="1811" departLane="random" departSpeed="10" />
    <vehicle id="roundabout_142" type="standard_car" route="route2" depart="1832" departLane="random" departSpeed="10" />
    <vehicle id="roundabout_143" type="standard_car" route="route2" depart="1845" departLane="random" departSpeed="10" />
    <vehicle id="roundabout_144" type="standard_car" route="route2" depart="1859" departLane="random" departSpeed="10" />
    <vehicle id="roundabout_145" type="standard_car" route="route3" depart="1904" departLane="random" departSpeed="10" />
    <vehicle id="roundabout_146" type="standard_car" route="route3" depart="1906" departLane="random" departSpeed="10" />
    <vehicle id="roundabout_147" type="standard_car" route="route1" depart="1936" departLane="random" departSpeed="10" />
    <vehicle id="roundabout_148" type="standard_car" route="route2" depart="1958" departLane="random" departSpeed="10" />
    <vehicle id="roundabout_149" type="standard_car" route="route7" depart="1999" departLane="random" departSpeed="10" />
    <vehicle id="roundabout_150" type="standard_car" route="route8" depart="2016" departLane="random" departSpeed="10" />
    <vehicle id="roundabout_151" type="standard_car" route="route2" depart="2019" departLane="random" departSpeed="10" />
    <vehicle id="roundabout_152" type="standard_car" route="route4" depart="2027" departLane="random" departSpeed="10" />
    <vehicle id="roundabout_153" type="standard_car" route="route4" depart="2036" departLane="random" departSpeed="10" />
    <vehicle id="roundabout_154" type="standard_car" route="route7" depart="2097" departLane="random" departSpeed="10" />
    <vehicle id="roundabout_155" type="standard_car" route="route3" depart="2103" departLane="random" departSpeed="10" />
    <vehicle id="roundabout_156" type="standard_car" route="route4" depart="2104" departLane="random" departSpeed="10" />
    <vehicle id="roundabout_157" type="standard_car" route="route3" depart="2116" departLane="random" departSpeed="10" />
    <vehicle id="roundabout_158" type="standard_car" route="route4" depart="2121" departLane="random" departSpeed="10" />
    <vehicle id="roundabout_159" type="standard_car" route="route2" depart="2127" departLane="random" departSpeed="10" />
    <vehicle id="roundabout_160" type="standard_car" route="route2" depart="2134" departLane="random" departSpeed="10" />
    <vehicle id="roundabout_161" type="standard_car" route="route2" depart="2152" departLane="random" departSpeed="10" />
    <vehicle id="roundabout_162" type="standard_car" route="route1" depart="2161" departLane="random" departSpeed="10" />
    <vehicle id="roundabout_163" type="standard_car" route="route3" depart="2186" departLane="random" departSpeed="10" />
    <vehicle id="roundabout_164" type="standard_car" route="route3" depart="2195" departLane="random" departSpeed="10" />
    <vehicle id="roundabout_165" type="standard_car" route="route3" depart="2218" departLane="random" departSpeed="10" />
    <vehicle id="roundabout_166" type="standard_car" route="route3" depart="2221" departLane="random" departSpeed="10" />
    <vehicle id="roundabout_167" type="standard_car" route="route4" depart="2224" departLane="random" departSpeed="10" />
    <vehicle id="roundabout_168" type="standard_car" route="route1" depart="2255" departLane="random" departSpeed="10" />
    <vehicle id="roundabout_169" type="standard_car" route="route4" depart="2284" departLane="random" departSpeed="10" />
    <vehicle id="roundabout_170" type="standard_car" route="route4" depart="2296" departLane="random" departSpeed="10" />
    <vehicle id="roundabout_171" type="standard_car" route="route4" depart="2302" departLane="random" departSpeed="10" />
    <vehicle id="roundabout_172" type="standard_car" route="route5" depart="2329" departLane="random" departSpeed="10" />
    <vehicle id="roundabout_173" type="standard_car" route="route3" depart="2353" departLane="random" departSpeed="10" />
    <vehicle id="roundabout_174" type="standard_car" route="route3" depart="2354" departLane="random" departSpeed="10" />
    <vehicle id="roundabout_175" type="standard_car" route="route8" depart="2361" departLane="random" departSpeed="10" />
    <vehicle id="roundabout_176" type="standard_car" route="route6" depart="2381" departLane="random" departSpeed="10" />
    <vehicle id="roundabout_177" type="standard_car" route="route3" depart="2391" departLane="random" departSpeed="10" />
    <vehicle id="roundabout_178" type="standard_car" route="route8" depart="2430" departLane="random" departSpeed="10" />
    <vehicle id="roundabout_179" type="standard_car" route="route3" depart="2455" departLane="random" departSpeed="10" />
    <vehicle id="roundabout_180" type="standard_car" route="route4" depart="2473" departLane="random" departSpeed="10" />
    <vehicle id="roundabout_181" type="standard_car" route="route3" depart="2474" departLane="random" departSpeed="10" />
    <vehicle id="roundabout_182" type="standard_car" route="route1" depart="2497" departLane="random" departSpeed="10" />
    <vehicle id="roundabout_183" type="standard_car" route="route1" depart="2510" departLane="random" departSpeed="10" />
    <vehicle id="roundabout_184" type="standard_car" route="route5" depart="2607" departLane="random" departSpeed="10" />
    <vehicle id="roundabout_185" type="standard_car" route="route3" depart="2611" departLane="random" departSpeed="10" />
    <vehicle id="roundabout_186" type="standard_car" route="route1" depart="2621" departLane="random" departSpeed="10" />
    <vehicle id="roundabout_187" type="standard_car" route="route2" depart="2642" departLane="random" departSpeed="10" />
    <vehicle id="roundabout_188" type="standard_car" route="route4" depart="2652" departLane="random" departSpeed="10" />
    <vehicle id="roundabout_189" type="standard_car" route="route6" depart="2748" departLane="random" departSpeed="10" />
    <vehicle id="roundabout_190" type="standard_car" route="route1" depart="2785" departLane="random" departSpeed="10" />
    <vehicle id="roundabout_191" type="standard_car" route="route5" depart="2845" departLane="random" departSpeed="10" />
    <vehicle id="roundabout_192" type="standard_car" route="route2" depart="2877" departLane="random" departSpeed="10" />
    <vehicle id="roundabout_193" type="standard_car" route="route2" depart="2900" departLane="random" departSpeed="10" />
    <vehicle id="roundabout_194" type="standard_car" route="route1" depart="3058" departLane="random" departSpeed="10" />
    <vehicle id="roundabout_195" type="standard_car" route="route5" depart="3152" departLane="random" departSpeed="10" />
    <vehicle id="roundabout_196" type="standard_car" route="route2" depart="3498" departLane="random" departSpeed="10" />
    <vehicle id="roundabout_197" type="standard_car" route="route7" depart="3514" departLane="random" departSpeed="10" />
    <vehicle id="roundabout_198" type="standard_car" route="route2" depart="3534" departLane="random" departSpeed="10" />
    <vehicle id="roundabout_199" type="standard_car" route="route4" depart="3772" departLane="random" departSpeed="10" />
</routes>
