<routes>
    <!-- Define emergency vehicle type -->
    <vType id="emergency" accel="3.0" decel="6.0" color="1,0,0"
           maxSpeed="20" sigma="0.5" emergency="true" />
    <!-- Define standard vehicle type -->
    <vType id="standard_car" accel="1.0" decel="4.5" length="5.0"
           minGap="2.5" maxSpeed="25" sigma="0.5" />

    <route id="route1" edges="e1 r1 e2_out"/>
    <route id="route2" edges="e2 r2 e3_out"/>
    <route id="route3" edges="e3 r3 e4_out"/>
    <route id="route4" edges="e4 r4 e1_out"/>
    <route id="route5" edges="e1 r1 r2 e3_out"/>
    <route id="route6" edges="e2 r2 r3 e4_out"/>
    <route id="route7" edges="e3 r3 r4 e1_out"/>
    <route id="route8" edges="e4 r4 r1 e2_out"/>
    <vehicle id="roundabout_0" type="standard_car" route="route4" depart="142" departLane="random" departSpeed="10" />
    <vehicle id="roundabout_1" type="standard_car" route="route2" depart="143" departLane="random" departSpeed="10" />
    <vehicle id="roundabout_2" type="standard_car" route="route2" depart="171" departLane="random" departSpeed="10" />
    <vehicle id="roundabout_3" type="standard_car" route="route1" depart="228" departLane="random" departSpeed="10" />
    <vehicle id="roundabout_4" type="standard_car" route="route2" depart="313" departLane="random" departSpeed="10" />
    <vehicle id="roundabout_5" type="standard_car" route="route6" depart="334" departLane="random" departSpeed="10" />
    <vehicle id="roundabout_6" type="standard_car" route="route1" depart="364" departLane="random" departSpeed="10" />
    <vehicle id="roundabout_7" type="standard_car" route="route3" depart="383" departLane="random" departSpeed="10" />
    <vehicle id="roundabout_8" type="standard_car" route="route6" depart="401" departLane="random" departSpeed="10" />
    <vehicle id="roundabout_9" type="standard_car" route="route2" depart="443" departLane="random" departSpeed="10" />
    <vehicle id="roundabout_10" type="standard_car" route="route2" depart="467" departLane="random" departSpeed="10" />
    <vehicle id="roundabout_11" type="standard_car" route="route4" depart="498" departLane="random" departSpeed="10" />
    <vehicle id="roundabout_12" type="standard_car" route="route6" depart="502" departLane="random" departSpeed="10" />
    <vehicle id="roundabout_13" type="standard_car" route="route2" depart="530" departLane="random" departSpeed="10" />
    <vehicle id="roundabout_14" type="standard_car" route="route3" depart="535" departLane="random" departSpeed="10" />
    <vehicle id="roundabout_15" type="standard_car" route="route2" depart="543" departLane="random" departSpeed="10" />
    <vehicle id="roundabout_16" type="standard_car" route="route6" depart="549" departLane="random" departSpeed="10" />
    <vehicle id="roundabout_17" type="standard_car" route="route3" depart="556" departLane="random" departSpeed="10" />
    <vehicle id="roundabout_18" type="standard_car" route="route1" depart="582" departLane="random" departSpeed="10" />
    <vehicle id="roundabout_19" type="standard_car" route="route4" depart="609" departLane="random" departSpeed="10" />
    <vehicle id="roundabout_20" type="standard_car" route="route5" depart="614" departLane="random" departSpeed="10" />
    <vehicle id="roundabout_21" type="standard_car" route="route7" depart="639" departLane="random" departSpeed="10" />
    <vehicle id="roundabout_22" type="standard_car" route="route1" depart="655" departLane="random" departSpeed="10" />
    <vehicle id="roundabout_23" type="standard_car" route="route3" depart="669" departLane="random" departSpeed="10" />
    <vehicle id="roundabout_24" type="standard_car" route="route1" depart="685" departLane="random" departSpeed="10" />
    <vehicle id="roundabout_25" type="standard_car" route="route4" depart="722" departLane="random" departSpeed="10" />
    <vehicle id="roundabout_26" type="standard_car" route="route6" depart="731" departLane="random" departSpeed="10" />
    <vehicle id="roundabout_27" type="standard_car" route="route6" depart="747" departLane="random" departSpeed="10" />
    <vehicle id="roundabout_28" type="standard_car" route="route3" depart="761" departLane="random" departSpeed="10" />
    <vehicle id="roundabout_29" type="standard_car" route="route1" depart="765" departLane="random" departSpeed="10" />
    <vehicle id="roundabout_30" type="standard_car" route="route3" depart="772" departLane="random" departSpeed="10" />
    <vehicle id="roundabout_31" type="standard_car" route="route3" depart="785" departLane="random" departSpeed="10" />
    <vehicle id="roundabout_32" type="standard_car" route="route3" depart="786" departLane="random" departSpeed="10" />
    <vehicle id="roundabout_33" type="standard_car" route="route1" depart="799" departLane="random" departSpeed="10" />
    <vehicle id="roundabout_34" type="standard_car" route="route2" depart="804" departLane="random" departSpeed="10" />
    <vehicle id="roundabout_35" type="standard_car" route="route4" depart="808" departLane="random" departSpeed="10" />
    <vehicle id="roundabout_36" type="standard_car" route="route2" depart="815" departLane="random" departSpeed="10" />
    <vehicle id="roundabout_37" type="standard_car" route="route4" depart="824" departLane="random" departSpeed="10" />
    <vehicle id="roundabout_38" type="standard_car" route="route1" depart="830" departLane="random" departSpeed="10" />
    <vehicle id="roundabout_39" type="standard_car" route="route1" depart="845" departLane="random" departSpeed="10" />
    <vehicle id="roundabout_40" type="standard_car" route="route2" depart="888" departLane="random" departSpeed="10" />
    <vehicle id="roundabout_41" type="standard_car" route="route8" depart="901" departLane="random" departSpeed="10" />
    <vehicle id="roundabout_42" type="standard_car" route="route1" depart="955" departLane="random" departSpeed="10" />
    <vehicle id="roundabout_43" type="standard_car" route="route7" depart="972" departLane="random" departSpeed="10" />
    <vehicle id="roundabout_44" type="standard_car" route="route6" depart="974" departLane="random" departSpeed="10" />
    <vehicle id="roundabout_45" type="standard_car" route="route1" depart="981" departLane="random" departSpeed="10" />
    <vehicle id="roundabout_46" type="standard_car" route="route2" depart="990" departLane="random" departSpeed="10" />
    <vehicle id="roundabout_47" type="standard_car" route="route1" depart="1015" departLane="random" departSpeed="10" />
    <vehicle id="roundabout_48" type="standard_car" route="route4" depart="1049" departLane="random" departSpeed="10" />
    <vehicle id="roundabout_49" type="standard_car" route="route4" depart="1101" departLane="random" departSpeed="10" />
    <vehicle id="roundabout_50" type="standard_car" route="route1" depart="1123" departLane="random" departSpeed="10" />
    <vehicle id="roundabout_51" type="standard_car" route="route8" depart="1136" departLane="random" departSpeed="10" />
    <vehicle id="roundabout_52" type="standard_car" route="route8" depart="1142" departLane="random" departSpeed="10" />
    <vehicle id="roundabout_53" type="standard_car" route="route1" depart="1144" departLane="random" departSpeed="10" />
    <vehicle id="roundabout_54" type="standard_car" route="route3" depart="1146" departLane="random" departSpeed="10" />
    <vehicle id="roundabout_55" type="standard_car" route="route1" depart="1152" departLane="random" departSpeed="10" />
    <vehicle id="roundabout_56" type="standard_car" route="route2" depart="1160" departLane="random" departSpeed="10" />
    <vehicle id="roundabout_57" type="standard_car" route="route7" depart="1176" departLane="random" departSpeed="10" />
    <vehicle id="roundabout_58" type="standard_car" route="route5" depart="1182" departLane="random" departSpeed="10" />
    <vehicle id="roundabout_59" type="standard_car" route="route2" depart="1190" departLane="random" departSpeed="10" />
    <vehicle id="roundabout_60" type="standard_car" route="route2" depart="1208" departLane="random" departSpeed="10" />
    <vehicle id="roundabout_61" type="standard_car" route="route8" depart="1210" departLane="random" departSpeed="10" />
    <vehicle id="roundabout_62" type="standard_car" route="route1" depart="1212" departLane="random" departSpeed="10" />
    <vehicle id="roundabout_63" type="standard_car" route="route2" depart="1216" departLane="random" departSpeed="10" />
    <vehicle id="roundabout_64" type="standard_car" route="route2" depart="1235" departLane="random" departSpeed="10" />
    <vehicle id="roundabout_65" type="standard_car" route="route4" depart="1235" departLane="random" departSpeed="10" />
    <vehicle id="roundabout_66" type="standard_car" route="route1" depart="1258" departLane="random" departSpeed="10" />
    <vehicle id="roundabout_67" type="standard_car" route="route4" depart="1271" departLane="random" departSpeed="10" />
    <vehicle id="roundabout_68" type="standard_car" route="route1" depart="1280" departLane="random" departSpeed="10" />
    <vehicle id="roundabout_69" type="standard_car" route="route3" depart="1290" departLane="random" departSpeed="10" />
    <vehicle id="roundabout_70" type="standard_car" route="route1" depart="1297" departLane="random" departSpeed="10" />
    <vehicle id="roundabout_71" type="standard_car" route="route4" depart="1302" departLane="random" departSpeed="10" />
    <vehicle id="roundabout_72" type="standard_car" route="route2" depart="1303" departLane="random" departSpeed="10" />
    <vehicle id="roundabout_73" type="standard_car" route="route2" depart="1304" departLane="random" departSpeed="10" />
    <vehicle id="roundabout_74" type="standard_car" route="route2" depart="1305" departLane="random" departSpeed="10" />
    <vehicle id="roundabout_75" type="standard_car" route="route6" depart="1307" departLane="random" departSpeed="10" />
    <vehicle id="roundabout_76" type="standard_car" route="route1" depart="1313" departLane="random" departSpeed="10" />
    <vehicle id="roundabout_77" type="standard_car" route="route8" depart="1322" departLane="random" departSpeed="10" />
    <vehicle id="roundabout_78" type="standard_car" route="route4" depart="1326" departLane="random" departSpeed="10" />
    <vehicle id="roundabout_79" type="standard_car" route="route3" depart="1353" departLane="random" departSpeed="10" />
    <vehicle id="roundabout_80" type="standard_car" route="route1" depart="1360" departLane="random" departSpeed="10" />
    <vehicle id="roundabout_81" type="standard_car" route="route4" depart="1362" departLane="random" departSpeed="10" />
    <vehicle id="roundabout_82" type="standard_car" route="route5" depart="1364" departLane="random" departSpeed="10" />
    <vehicle id="roundabout_83" type="standard_car" route="route4" depart="1373" departLane="random" departSpeed="10" />
    <vehicle id="roundabout_84" type="standard_car" route="route6" depart="1380" departLane="random" departSpeed="10" />
    <vehicle id="roundabout_85" type="standard_car" route="route2" depart="1381" departLane="random" departSpeed="10" />
    <vehicle id="roundabout_86" type="standard_car" route="route7" depart="1425" departLane="random" departSpeed="10" />
    <vehicle id="roundabout_87" type="standard_car" route="route2" depart="1440" departLane="random" departSpeed="10" />
    <vehicle id="roundabout_88" type="standard_car" route="route5" depart="1472" departLane="random" departSpeed="10" />
    <vehicle id="roundabout_89" type="standard_car" route="route2" depart="1494" departLane="random" departSpeed="10" />
    <vehicle id="roundabout_90" type="standard_car" route="route4" depart="1504" departLane="random" departSpeed="10" />
    <vehicle id="roundabout_91" type="standard_car" route="route1" depart="1521" departLane="random" departSpeed="10" />
    <vehicle id="roundabout_92" type="standard_car" route="route6" depart="1530" departLane="random" departSpeed="10" />
    <vehicle id="roundabout_93" type="standard_car" route="route3" depart="1531" departLane="random" departSpeed="10" />
    <vehicle id="roundabout_94" type="standard_car" route="route1" depart="1546" departLane="random" departSpeed="10" />
    <vehicle id="roundabout_95" type="standard_car" route="route4" depart="1552" departLane="random" departSpeed="10" />
    <vehicle id="roundabout_96" type="standard_car" route="route6" depart="1559" departLane="random" departSpeed="10" />
    <vehicle id="roundabout_97" type="standard_car" route="route1" depart="1575" departLane="random" departSpeed="10" />
    <vehicle id="roundabout_98" type="standard_car" route="route3" depart="1581" departLane="random" departSpeed="10" />
    <vehicle id="roundabout_99" type="standard_car" route="route6" depart="1586" departLane="random" departSpeed="10" />
    <vehicle id="roundabout_100" type="standard_car" route="route4" depart="1593" departLane="random" departSpeed="10" />
    <vehicle id="roundabout_101" type="standard_car" route="route1" depart="1598" departLane="random" departSpeed="10" />
    <vehicle id="roundabout_102" type="standard_car" route="route4" depart="1602" departLane="random" departSpeed="10" />
    <vehicle id="roundabout_103" type="standard_car" route="route2" depart="1613" departLane="random" departSpeed="10" />
    <vehicle id="roundabout_104" type="standard_car" route="route6" depart="1619" departLane="random" departSpeed="10" />
    <vehicle id="roundabout_105" type="standard_car" route="route1" depart="1624" departLane="random" departSpeed="10" />
    <vehicle id="roundabout_106" type="standard_car" route="route2" depart="1657" departLane="random" departSpeed="10" />
    <vehicle id="roundabout_107" type="standard_car" route="route8" depart="1658" departLane="random" departSpeed="10" />
    <vehicle id="roundabout_108" type="standard_car" route="route1" depart="1713" departLane="random" departSpeed="10" />
    <vehicle id="roundabout_109" type="standard_car" route="route3" depart="1717" departLane="random" departSpeed="10" />
    <vehicle id="roundabout_110" type="standard_car" route="route2" depart="1717" departLane="random" departSpeed="10" />
    <vehicle id="roundabout_111" type="standard_car" route="route4" depart="1725" departLane="random" departSpeed="10" />
    <vehicle id="roundabout_112" type="standard_car" route="route4" depart="1731" departLane="random" departSpeed="10" />
    <vehicle id="roundabout_113" type="standard_car" route="route3" depart="1751" departLane="random" departSpeed="10" />
    <vehicle id="roundabout_114" type="standard_car" route="route5" depart="1751" departLane="random" departSpeed="10" />
    <vehicle id="roundabout_115" type="standard_car" route="route1" depart="1758" departLane="random" departSpeed="10" />
    <vehicle id="roundabout_116" type="standard_car" route="route3" depart="1768" departLane="random" departSpeed="10" />
    <vehicle id="roundabout_117" type="standard_car" route="route4" depart="1779" departLane="random" departSpeed="10" />
    <vehicle id="roundabout_118" type="standard_car" route="route1" depart="1780" departLane="random" departSpeed="10" />
    <vehicle id="roundabout_119" type="standard_car" route="route3" depart="1781" departLane="random" departSpeed="10" />
    <vehicle id="roundabout_120" type="standard_car" route="route8" depart="1782" departLane="random" departSpeed="10" />
    <vehicle id="roundabout_121" type="standard_car" route="route5" depart="1799" departLane="random" departSpeed="10" />
    <vehicle id="roundabout_122" type="standard_car" route="route3" depart="1812" departLane="random" departSpeed="10" />
    <vehicle id="roundabout_123" type="standard_car" route="route1" depart="1813" departLane="random" departSpeed="10" />
    <vehicle id="roundabout_124" type="standard_car" route="route3" depart="1813" departLane="random" departSpeed="10" />
    <vehicle id="roundabout_125" type="standard_car" route="route4" depart="1844" departLane="random" departSpeed="10" />
    <vehicle id="roundabout_126" type="standard_car" route="route2" depart="1863" departLane="random" departSpeed="10" />
    <vehicle id="roundabout_127" type="standard_car" route="route1" depart="1886" departLane="random" departSpeed="10" />
    <vehicle id="roundabout_128" type="standard_car" route="route6" depart="1887" departLane="random" departSpeed="10" />
    <vehicle id="roundabout_129" type="standard_car" route="route6" depart="1918" departLane="random" departSpeed="10" />
    <vehicle id="roundabout_130" type="standard_car" route="route1" depart="1932" departLane="random" departSpeed="10" />
    <vehicle id="roundabout_131" type="standard_car" route="route4" depart="1939" departLane="random" departSpeed="10" />
    <vehicle id="roundabout_132" type="standard_car" route="route8" depart="1943" departLane="random" departSpeed="10" />
    <vehicle id="roundabout_133" type="standard_car" route="route2" depart="1969" departLane="random" departSpeed="10" />
    <vehicle id="roundabout_134" type="standard_car" route="route2" depart="2016" departLane="random" departSpeed="10" />
    <vehicle id="roundabout_135" type="standard_car" route="route3" depart="2032" departLane="random" departSpeed="10" />
    <vehicle id="roundabout_136" type="standard_car" route="route2" depart="2055" departLane="random" departSpeed="10" />
    <vehicle id="roundabout_137" type="standard_car" route="route2" depart="2067" departLane="random" departSpeed="10" />
    <vehicle id="roundabout_138" type="standard_car" route="route4" depart="2068" departLane="random" departSpeed="10" />
    <vehicle id="roundabout_139" type="standard_car" route="route1" depart="2070" departLane="random" departSpeed="10" />
    <vehicle id="roundabout_140" type="standard_car" route="route3" depart="2073" departLane="random" departSpeed="10" />
    <vehicle id="roundabout_141" type="standard_car" route="route4" depart="2082" departLane="random" departSpeed="10" />
    <vehicle id="roundabout_142" type="standard_car" route="route4" depart="2089" departLane="random" departSpeed="10" />
    <vehicle id="roundabout_143" type="standard_car" route="route8" depart="2128" departLane="random" departSpeed="10" />
    <vehicle id="roundabout_144" type="standard_car" route="route1" depart="2149" departLane="random" departSpeed="10" />
    <vehicle id="roundabout_145" type="standard_car" route="route5" depart="2159" departLane="random" departSpeed="10" />
    <vehicle id="roundabout_146" type="standard_car" route="route4" depart="2160" departLane="random" departSpeed="10" />
    <vehicle id="roundabout_147" type="standard_car" route="route2" depart="2174" departLane="random" departSpeed="10" />
    <vehicle id="roundabout_148" type="standard_car" route="route5" depart="2175" departLane="random" departSpeed="10" />
    <vehicle id="roundabout_149" type="standard_car" route="route6" depart="2213" departLane="random" departSpeed="10" />
    <vehicle id="roundabout_150" type="standard_car" route="route3" depart="2220" departLane="random" departSpeed="10" />
    <vehicle id="roundabout_151" type="standard_car" route="route1" depart="2236" departLane="random" departSpeed="10" />
    <vehicle id="roundabout_152" type="standard_car" route="route4" depart="2238" departLane="random" departSpeed="10" />
    <vehicle id="roundabout_153" type="standard_car" route="route3" depart="2264" departLane="random" departSpeed="10" />
    <vehicle id="roundabout_154" type="standard_car" route="route3" depart="2311" departLane="random" departSpeed="10" />
    <vehicle id="roundabout_155" type="standard_car" route="route3" depart="2320" departLane="random" departSpeed="10" />
    <vehicle id="roundabout_156" type="standard_car" route="route1" depart="2376" departLane="random" departSpeed="10" />
    <vehicle id="roundabout_157" type="standard_car" route="route1" depart="2380" departLane="random" departSpeed="10" />
    <vehicle id="roundabout_158" type="standard_car" route="route3" depart="2394" departLane="random" departSpeed="10" />
    <vehicle id="roundabout_159" type="standard_car" route="route8" depart="2397" departLane="random" departSpeed="10" />
    <vehicle id="roundabout_160" type="standard_car" route="route4" depart="2411" departLane="random" departSpeed="10" />
    <vehicle id="roundabout_161" type="standard_car" route="route4" depart="2439" departLane="random" departSpeed="10" />
    <vehicle id="roundabout_162" type="standard_car" route="route4" depart="2452" departLane="random" departSpeed="10" />
    <vehicle id="roundabout_163" type="standard_car" route="route1" depart="2460" departLane="random" departSpeed="10" />
    <vehicle id="roundabout_164" type="standard_car" route="route1" depart="2507" departLane="random" departSpeed="10" />
    <vehicle id="roundabout_165" type="standard_car" route="route2" depart="2527" departLane="random" departSpeed="10" />
    <vehicle id="roundabout_166" type="standard_car" route="route2" depart="2529" departLane="random" departSpeed="10" />
    <vehicle id="roundabout_167" type="standard_car" route="route3" depart="2538" departLane="random" departSpeed="10" />
    <vehicle id="roundabout_168" type="standard_car" route="route1" depart="2551" departLane="random" departSpeed="10" />
    <vehicle id="roundabout_169" type="standard_car" route="route3" depart="2553" departLane="random" departSpeed="10" />
    <vehicle id="roundabout_170" type="standard_car" route="route4" depart="2643" departLane="random" departSpeed="10" />
    <vehicle id="roundabout_171" type="standard_car" route="route1" depart="2653" departLane="random" departSpeed="10" />
    <vehicle id="roundabout_172" type="standard_car" route="route2" depart="2700" departLane="random" departSpeed="10" />
    <vehicle id="roundabout_173" type="standard_car" route="route4" depart="2705" departLane="random" departSpeed="10" />
    <vehicle id="roundabout_174" type="standard_car" route="route7" depart="2746" departLane="random" departSpeed="10" />
    <vehicle id="roundabout_175" type="standard_car" route="route1" depart="2760" departLane="random" departSpeed="10" />
    <vehicle id="roundabout_176" type="standard_car" route="route4" depart="2777" departLane="random" departSpeed="10" />
    <vehicle id="roundabout_177" type="standard_car" route="route2" depart="2849" departLane="random" departSpeed="10" />
    <vehicle id="roundabout_178" type="standard_car" route="route2" depart="2861" departLane="random" departSpeed="10" />
    <vehicle id="roundabout_179" type="standard_car" route="route8" depart="2903" departLane="random" departSpeed="10" />
    <vehicle id="roundabout_180" type="standard_car" route="route1" depart="2910" departLane="random" departSpeed="10" />
    <vehicle id="roundabout_181" type="standard_car" route="route3" depart="2962" departLane="random" departSpeed="10" />
    <vehicle id="roundabout_182" type="standard_car" route="route7" depart="2978" departLane="random" departSpeed="10" />
    <vehicle id="roundabout_183" type="standard_car" route="route3" depart="2998" departLane="random" departSpeed="10" />
    <vehicle id="roundabout_184" type="standard_car" route="route6" depart="3043" departLane="random" departSpeed="10" />
    <vehicle id="roundabout_185" type="standard_car" route="route6" depart="3054" departLane="random" departSpeed="10" />
    <vehicle id="roundabout_186" type="standard_car" route="route6" depart="3074" departLane="random" departSpeed="10" />
    <vehicle id="roundabout_187" type="standard_car" route="route2" depart="3105" departLane="random" departSpeed="10" />
    <vehicle id="roundabout_188" type="standard_car" route="route1" depart="3112" departLane="random" departSpeed="10" />
    <vehicle id="roundabout_189" type="standard_car" route="route2" depart="3179" departLane="random" departSpeed="10" />
    <vehicle id="roundabout_190" type="standard_car" route="route3" depart="3189" departLane="random" departSpeed="10" />
    <vehicle id="roundabout_191" type="standard_car" route="route2" depart="3325" departLane="random" departSpeed="10" />
    <vehicle id="roundabout_192" type="standard_car" route="route3" depart="3350" departLane="random" departSpeed="10" />
    <vehicle id="roundabout_193" type="standard_car" route="route1" depart="3415" departLane="random" departSpeed="10" />
    <vehicle id="roundabout_194" type="standard_car" route="route1" depart="3426" departLane="random" departSpeed="10" />
    <vehicle id="roundabout_195" type="standard_car" route="route5" depart="3482" departLane="random" departSpeed="10" />
    <vehicle id="roundabout_196" type="standard_car" route="route3" depart="3552" departLane="random" departSpeed="10" />
    <vehicle id="emergency_0" type="emergency" route="route6" depart="3558" departLane="random" departSpeed="10" />
    <vehicle id="roundabout_197" type="standard_car" route="route3" depart="3588" departLane="random" departSpeed="10" />
    <vehicle id="roundabout_198" type="standard_car" route="route3" depart="3644" departLane="random" departSpeed="10" />
    <vehicle id="roundabout_199" type="standard_car" route="route7" depart="3897" departLane="random" departSpeed="10" />
    <vehicle id="emergency_1" type="emergency" route="route8" depart="4317" departLane="random" departSpeed="10" />
    <vehicle id="emergency_2" type="emergency" route="route3" depart="4750" departLane="random" departSpeed="10" />
</routes>
