<?xml version="1.0" encoding="UTF-8"?>
<nodes>
    <!-- Inner roundabout nodes with traffic lights, renamed to follow TL prefix -->
    <node id="TL1" x="100" y="0" type="traffic_light"/>
    <node id="TL2" x="0" y="100" type="traffic_light"/>
    <node id="TL3" x="-100" y="0" type="traffic_light"/>
    <node id="TL4" x="0" y="-100" type="traffic_light"/>

    <!-- Outer nodes for incoming/outgoing roads -->
    <node id="n1_in" x="200" y="0" type="priority"/>
    <node id="n2_in" x="0" y="200" type="priority"/>
    <node id="n3_in" x="-200" y="0" type="priority"/>
    <node id="n4_in" x="0" y="-200" type="priority"/>
</nodes>
