<?xml version="1.0" encoding="UTF-8"?>

<!-- generated on 2025-03-22 17:37:22 by Eclipse SUMO netedit Version 1.22.0
<neteditConfiguration xmlns:xsi="http://www.w3.org/2001/XMLSchema-instance" xsi:noNamespaceSchemaLocation="http://sumo.dlr.de/xsd/neteditConfiguration.xsd">

    <input>
        <sumo-net-file value="C:\Users\Cyborg 15\Desktop\diaCW\diaCW\TLCS\intersection\environment2.net.xml"/>
    </input>

    <output>
        <output-file value="C:\Users\Cyborg 15\Desktop\diaCW\diaCW\TLCS\intersection\environment2.net.xml"/>
    </output>

    <processing>
        <geometry.min-radius.fix.railways value="false"/>
        <geometry.max-grade.fix value="false"/>
        <offset.disable-normalization value="true"/>
        <lefthand value="0"/>
    </processing>

    <junctions>
        <no-turnarounds value="true"/>
        <junctions.corner-detail value="5"/>
        <junctions.limit-turn-speed value="5.50"/>
        <rectangular-lane-cut value="0"/>
    </junctions>

    <pedestrian>
        <walkingareas value="0"/>
    </pedestrian>

</neteditConfiguration>
-->

<net version="1.20" junctionCornerDetail="5" limitTurnSpeed="5.50" xmlns:xsi="http://www.w3.org/2001/XMLSchema-instance" xsi:noNamespaceSchemaLocation="http://sumo.dlr.de/xsd/net_file.xsd">

    <location netOffset="0.00,0.00" convBoundary="-800.00,-750.00,1000.00,750.00" origBoundary="-10000000000.00,-10000000000.00,10000000000.00,10000000000.00" projParameter="!"/>

    <edge id=":J24_0" function="internal">
        <lane id=":J24_0_0" index="0" speed="6.51" length="9.03" shape="-311.20,16.80 -311.55,14.35 -312.60,12.60 -314.35,11.55 -316.80,11.20"/>
    </edge>
    <edge id=":J24_1" function="internal">
        <lane id=":J24_1_0" index="0" speed="13.89" length="33.60" shape="-311.20,16.80 -311.20,-16.80"/>
        <lane id=":J24_1_1" index="1" speed="13.89" length="33.60" shape="-308.00,16.80 -308.00,-16.80"/>
        <lane id=":J24_1_2" index="2" speed="13.89" length="33.60" shape="-304.80,16.80 -304.80,-16.80"/>
    </edge>
    <edge id=":J24_4" function="internal">
        <lane id=":J24_4_0" index="0" speed="11.36" length="13.36" shape="-301.60,16.80 -300.45,8.75 -297.76,4.26"/>
    </edge>
    <edge id=":J24_20" function="internal">
        <lane id=":J24_20_0" index="0" speed="11.36" length="16.31" shape="-297.76,4.26 -297.00,3.00 -291.25,-0.45 -283.20,-1.60"/>
    </edge>
    <edge id=":J24_5" function="internal">
        <lane id=":J24_5_0" index="0" speed="6.51" length="9.03" shape="-283.20,11.20 -285.65,11.55 -287.40,12.60 -288.45,14.35 -288.80,16.80"/>
    </edge>
    <edge id=":J24_6" function="internal">
        <lane id=":J24_6_0" index="0" speed="13.89" length="33.60" shape="-283.20,11.20 -316.80,11.20"/>
        <lane id=":J24_6_1" index="1" speed="13.89" length="33.60" shape="-283.20,8.00 -316.80,8.00"/>
        <lane id=":J24_6_2" index="2" speed="13.89" length="33.60" shape="-283.20,4.80 -316.80,4.80"/>
    </edge>
    <edge id=":J24_9" function="internal">
        <lane id=":J24_9_0" index="0" speed="11.36" length="13.36" shape="-283.20,1.60 -291.25,0.45 -295.74,-2.24"/>
    </edge>
    <edge id=":J24_21" function="internal">
        <lane id=":J24_21_0" index="0" speed="11.36" length="16.31" shape="-295.74,-2.24 -297.00,-3.00 -300.45,-8.75 -301.60,-16.80"/>
    </edge>
    <edge id=":J24_10" function="internal">
        <lane id=":J24_10_0" index="0" speed="6.51" length="9.03" shape="-288.80,-16.80 -288.45,-14.35 -287.40,-12.60 -285.65,-11.55 -283.20,-11.20"/>
    </edge>
    <edge id=":J24_11" function="internal">
        <lane id=":J24_11_0" index="0" speed="13.89" length="33.60" shape="-288.80,-16.80 -288.80,16.80"/>
        <lane id=":J24_11_1" index="1" speed="13.89" length="33.60" shape="-292.00,-16.80 -292.00,16.80"/>
        <lane id=":J24_11_2" index="2" speed="13.89" length="33.60" shape="-295.20,-16.80 -295.20,16.80"/>
    </edge>
    <edge id=":J24_14" function="internal">
        <lane id=":J24_14_0" index="0" speed="11.36" length="13.36" shape="-298.40,-16.80 -299.55,-8.75 -302.24,-4.26"/>
    </edge>
    <edge id=":J24_22" function="internal">
        <lane id=":J24_22_0" index="0" speed="11.36" length="16.31" shape="-302.24,-4.26 -303.00,-3.00 -308.75,0.45 -316.80,1.60"/>
    </edge>
    <edge id=":J24_15" function="internal">
        <lane id=":J24_15_0" index="0" speed="6.51" length="9.03" shape="-316.80,-11.20 -314.35,-11.55 -312.60,-12.60 -311.55,-14.35 -311.20,-16.80"/>
    </edge>
    <edge id=":J24_16" function="internal">
        <lane id=":J24_16_0" index="0" speed="13.89" length="33.60" shape="-316.80,-11.20 -283.20,-11.20"/>
        <lane id=":J24_16_1" index="1" speed="13.89" length="33.60" shape="-316.80,-8.00 -283.20,-8.00"/>
        <lane id=":J24_16_2" index="2" speed="13.89" length="33.60" shape="-316.80,-4.80 -283.20,-4.80"/>
    </edge>
    <edge id=":J24_19" function="internal">
        <lane id=":J24_19_0" index="0" speed="11.36" length="13.36" shape="-316.80,-1.60 -308.75,-0.45 -304.26,2.24"/>
    </edge>
    <edge id=":J24_23" function="internal">
        <lane id=":J24_23_0" index="0" speed="11.36" length="16.31" shape="-304.26,2.24 -303.00,3.00 -299.55,8.75 -298.40,16.80"/>
    </edge>
    <edge id=":J27_0" function="internal">
        <lane id=":J27_0_0" index="0" speed="6.51" length="9.03" shape="588.80,16.80 588.45,14.35 587.40,12.60 585.65,11.55 583.20,11.20"/>
    </edge>
    <edge id=":J27_1" function="internal">
        <lane id=":J27_1_0" index="0" speed="13.89" length="33.60" shape="588.80,16.80 588.80,-16.80"/>
        <lane id=":J27_1_1" index="1" speed="13.89" length="33.60" shape="592.00,16.80 592.00,-16.80"/>
        <lane id=":J27_1_2" index="2" speed="13.89" length="33.60" shape="595.20,16.80 595.20,-16.80"/>
    </edge>
    <edge id=":J27_4" function="internal">
        <lane id=":J27_4_0" index="0" speed="11.36" length="29.67" shape="598.40,16.80 599.55,8.75 603.00,3.00 608.75,-0.45 616.80,-1.60"/>
    </edge>
    <edge id=":J27_5" function="internal">
        <lane id=":J27_5_0" index="0" speed="6.51" length="9.03" shape="616.80,11.20 614.35,11.55 612.60,12.60 611.55,14.35 611.20,16.80"/>
    </edge>
    <edge id=":J27_6" function="internal">
        <lane id=":J27_6_0" index="0" speed="13.89" length="33.60" shape="616.80,8.00 583.20,8.00"/>
        <lane id=":J27_6_1" index="1" speed="13.89" length="33.60" shape="616.80,4.80 583.20,4.80"/>
    </edge>
    <edge id=":J27_8" function="internal">
        <lane id=":J27_8_0" index="0" speed="11.36" length="29.67" shape="616.80,1.60 608.75,0.45 603.00,-3.00 599.55,-8.75 598.40,-16.80"/>
    </edge>
    <edge id=":J27_9" function="internal">
        <lane id=":J27_9_0" index="0" speed="6.51" length="9.03" shape="611.20,-16.80 611.55,-14.35 612.60,-12.60 614.35,-11.55 616.80,-11.20"/>
    </edge>
    <edge id=":J27_10" function="internal">
        <lane id=":J27_10_0" index="0" speed="13.89" length="33.60" shape="611.20,-16.80 611.20,16.80"/>
        <lane id=":J27_10_1" index="1" speed="13.89" length="33.60" shape="608.00,-16.80 608.00,16.80"/>
        <lane id=":J27_10_2" index="2" speed="13.89" length="33.60" shape="604.80,-16.80 604.80,16.80"/>
    </edge>
    <edge id=":J27_13" function="internal">
        <lane id=":J27_13_0" index="0" speed="11.36" length="29.67" shape="601.60,-16.80 600.45,-8.75 597.00,-3.00 591.25,0.45 583.20,1.60"/>
    </edge>
    <edge id=":J27_14" function="internal">
        <lane id=":J27_14_0" index="0" speed="6.51" length="9.03" shape="583.20,-11.20 585.65,-11.55 587.40,-12.60 588.45,-14.35 588.80,-16.80"/>
    </edge>
    <edge id=":J27_15" function="internal">
        <lane id=":J27_15_0" index="0" speed="13.89" length="33.60" shape="583.20,-8.00 616.80,-8.00"/>
        <lane id=":J27_15_1" index="1" speed="13.89" length="33.60" shape="583.20,-4.80 616.80,-4.80"/>
    </edge>
    <edge id=":J27_17" function="internal">
        <lane id=":J27_17_0" index="0" speed="11.36" length="29.67" shape="583.20,-1.60 591.25,-0.45 597.00,3.00 600.45,8.75 601.60,16.80"/>
    </edge>

    <edge id="-E11" from="J24" to="J23" priority="-1">
        <lane id="-E11_0" index="0" speed="13.89" length="383.20" shape="-288.80,16.80 -288.80,400.00"/>
        <lane id="-E11_1" index="1" speed="13.89" length="383.20" shape="-292.00,16.80 -292.00,400.00"/>
        <lane id="-E11_2" index="2" speed="13.89" length="383.20" shape="-295.20,16.80 -295.20,400.00"/>
        <lane id="-E11_3" index="3" speed="13.89" length="383.20" shape="-298.40,16.80 -298.40,400.00"/>
    </edge>
    <edge id="-E12" from="J25" to="J24" priority="-1">
        <lane id="-E12_0" index="0" speed="13.89" length="383.20" shape="-288.80,-400.00 -288.80,-16.80"/>
        <lane id="-E12_1" index="1" speed="13.89" length="383.20" shape="-292.00,-400.00 -292.00,-16.80"/>
        <lane id="-E12_2" index="2" speed="13.89" length="383.20" shape="-295.20,-400.00 -295.20,-16.80"/>
        <lane id="-E12_3" index="3" speed="13.89" length="383.20" shape="-298.40,-400.00 -298.40,-16.80"/>
    </edge>
    <edge id="-E13" from="J24" to="J26" priority="-1">
        <lane id="-E13_0" index="0" speed="13.89" length="483.20" shape="-316.80,11.20 -800.00,11.20"/>
        <lane id="-E13_1" index="1" speed="13.89" length="483.20" shape="-316.80,8.00 -800.00,8.00"/>
        <lane id="-E13_2" index="2" speed="13.89" length="483.20" shape="-316.80,4.80 -800.00,4.80"/>
        <lane id="-E13_3" index="3" speed="13.89" length="483.20" shape="-316.80,1.60 -800.00,1.60"/>
    </edge>
    <edge id="-E14" from="J27" to="J24" priority="-1">
        <lane id="-E14_0" index="0" speed="13.89" length="866.40" shape="583.20,11.20 -283.20,11.20"/>
        <lane id="-E14_1" index="1" speed="13.89" length="866.40" shape="583.20,8.00 -283.20,8.00"/>
        <lane id="-E14_2" index="2" speed="13.89" length="866.40" shape="583.20,4.80 -283.20,4.80"/>
        <lane id="-E14_3" index="3" speed="13.89" length="866.40" shape="583.20,1.60 -283.20,1.60"/>
    </edge>
    <edge id="-E15" from="J28" to="J27" priority="-1">
        <lane id="-E15_0" index="0" speed="13.89" length="383.20" shape="1000.00,11.20 616.80,11.20"/>
        <lane id="-E15_1" index="1" speed="13.89" length="383.20" shape="1000.00,8.00 616.80,8.00"/>
        <lane id="-E15_2" index="2" speed="13.89" length="383.20" shape="1000.00,4.80 616.80,4.80"/>
        <lane id="-E15_3" index="3" speed="13.89" length="383.20" shape="1000.00,1.60 616.80,1.60"/>
    </edge>
    <edge id="-E16" from="J27" to="J29" priority="-1">
        <lane id="-E16_0" index="0" speed="13.89" length="383.20" shape="611.20,16.80 611.20,400.00"/>
        <lane id="-E16_1" index="1" speed="13.89" length="383.20" shape="608.00,16.80 608.00,400.00"/>
        <lane id="-E16_2" index="2" speed="13.89" length="383.20" shape="604.80,16.80 604.80,400.00"/>
        <lane id="-E16_3" index="3" speed="13.89" length="383.20" shape="601.60,16.80 601.60,400.00"/>
    </edge>
    <edge id="-E17" from="J30" to="J27" priority="-1">
        <lane id="-E17_0" index="0" speed="13.89" length="383.20" shape="611.20,-400.00 611.20,-16.80"/>
        <lane id="-E17_1" index="1" speed="13.89" length="383.20" shape="608.00,-400.00 608.00,-16.80"/>
        <lane id="-E17_2" index="2" speed="13.89" length="383.20" shape="604.80,-400.00 604.80,-16.80"/>
        <lane id="-E17_3" index="3" speed="13.89" length="383.20" shape="601.60,-400.00 601.60,-16.80"/>
    </edge>
    <edge id="E11" from="J23" to="J24" priority="-1">
        <lane id="E11_0" index="0" speed="13.89" length="383.20" shape="-311.20,400.00 -311.20,16.80"/>
        <lane id="E11_1" index="1" speed="13.89" length="383.20" shape="-308.00,400.00 -308.00,16.80"/>
        <lane id="E11_2" index="2" speed="13.89" length="383.20" shape="-304.80,400.00 -304.80,16.80"/>
        <lane id="E11_3" index="3" speed="13.89" length="383.20" shape="-301.60,400.00 -301.60,16.80"/>
    </edge>
    <edge id="E12" from="J24" to="J25" priority="-1">
        <lane id="E12_0" index="0" speed="13.89" length="383.20" shape="-311.20,-16.80 -311.20,-400.00"/>
        <lane id="E12_1" index="1" speed="13.89" length="383.20" shape="-308.00,-16.80 -308.00,-400.00"/>
        <lane id="E12_2" index="2" speed="13.89" length="383.20" shape="-304.80,-16.80 -304.80,-400.00"/>
        <lane id="E12_3" index="3" speed="13.89" length="383.20" shape="-301.60,-16.80 -301.60,-400.00"/>
    </edge>
    <edge id="E13" from="J26" to="J24" priority="-1">
        <lane id="E13_0" index="0" speed="13.89" length="483.20" shape="-800.00,-11.20 -316.80,-11.20"/>
        <lane id="E13_1" index="1" speed="13.89" length="483.20" shape="-800.00,-8.00 -316.80,-8.00"/>
        <lane id="E13_2" index="2" speed="13.89" length="483.20" shape="-800.00,-4.80 -316.80,-4.80"/>
        <lane id="E13_3" index="3" speed="13.89" length="483.20" shape="-800.00,-1.60 -316.80,-1.60"/>
    </edge>
    <edge id="E14" from="J24" to="J27" priority="-1">
        <lane id="E14_0" index="0" speed="13.89" length="866.40" shape="-283.20,-11.20 583.20,-11.20"/>
        <lane id="E14_1" index="1" speed="13.89" length="866.40" shape="-283.20,-8.00 583.20,-8.00"/>
        <lane id="E14_2" index="2" speed="13.89" length="866.40" shape="-283.20,-4.80 583.20,-4.80"/>
        <lane id="E14_3" index="3" speed="13.89" length="866.40" shape="-283.20,-1.60 583.20,-1.60"/>
    </edge>
    <edge id="E15" from="J27" to="J28" priority="-1">
        <lane id="E15_0" index="0" speed="13.89" length="383.20" shape="616.80,-11.20 1000.00,-11.20"/>
        <lane id="E15_1" index="1" speed="13.89" length="383.20" shape="616.80,-8.00 1000.00,-8.00"/>
        <lane id="E15_2" index="2" speed="13.89" length="383.20" shape="616.80,-4.80 1000.00,-4.80"/>
        <lane id="E15_3" index="3" speed="13.89" length="383.20" shape="616.80,-1.60 1000.00,-1.60"/>
    </edge>
    <edge id="E16" from="J29" to="J27" priority="-1">
        <lane id="E16_0" index="0" speed="13.89" length="383.20" shape="588.80,400.00 588.80,16.80"/>
        <lane id="E16_1" index="1" speed="13.89" length="383.20" shape="592.00,400.00 592.00,16.80"/>
        <lane id="E16_2" index="2" speed="13.89" length="383.20" shape="595.20,400.00 595.20,16.80"/>
        <lane id="E16_3" index="3" speed="13.89" length="383.20" shape="598.40,400.00 598.40,16.80"/>
    </edge>
    <edge id="E17" from="J27" to="J30" priority="-1">
        <lane id="E17_0" index="0" speed="13.89" length="383.20" shape="588.80,-16.80 588.80,-400.00"/>
        <lane id="E17_1" index="1" speed="13.89" length="383.20" shape="592.00,-16.80 592.00,-400.00"/>
        <lane id="E17_2" index="2" speed="13.89" length="383.20" shape="595.20,-16.80 595.20,-400.00"/>
        <lane id="E17_3" index="3" speed="13.89" length="383.20" shape="598.40,-16.80 598.40,-400.00"/>
    </edge>

    <tlLogic id="J24" type="static" programID="0" offset="0">
        <phase duration="33" state="GGGGgrrrrrGGGGgrrrrr"/>
        <phase duration="3"  state="yyyygrrrrryyyygrrrrr"/>
        <phase duration="6"  state="rrrrGrrrrrrrrrGrrrrr"/>
        <phase duration="3"  state="rrrryrrrrrrrrryrrrrr"/>
        <phase duration="33" state="rrrrrGGGGgrrrrrGGGGg"/>
        <phase duration="3"  state="rrrrryyyygrrrrryyyyg"/>
        <phase duration="6"  state="rrrrrrrrrGrrrrrrrrrG"/>
        <phase duration="3"  state="rrrrrrrrryrrrrrrrrry"/>
    </tlLogic>
    <tlLogic id="J27" type="static" programID="0" offset="0">
        <phase duration="100" state="GGGGrrrrrrGGGGrrrrrr"/>
        <phase duration="100" state="yyyyrrrrrryyyyrrrrrr"/>
        <phase duration="100" state="rrrrGrrrrrrrrrGrrrrr"/>
        <phase duration="100" state="rrrryrrrrrrrrryrrrrr"/>
        <phase duration="100" state="rrrrrGGGGrrrrrrGGGGr"/>
        <phase duration="100" state="rrrrryyyyrrrrrryyyyr"/>
        <phase duration="100" state="rrrrrrrrrGrrrrrrrrrG"/>
        <phase duration="100" state="rrrrrrrrryrrrrrrrrry"/>
    </tlLogic>

    <junction id="DN" type="dead_end" x="0.00" y="750.00" incLanes="" intLanes="" shape="0.00,750.00"/>
    <junction id="DS" type="dead_end" x="0.00" y="-750.00" incLanes="" intLanes="" shape="0.00,-750.00"/>
    <junction id="J23" type="dead_end" x="-300.00" y="400.00" incLanes="-E11_0 -E11_1 -E11_2 -E11_3" intLanes="" shape="-300.00,400.00 -287.20,400.00 -300.00,400.00"/>
    <junction id="J24" type="traffic_light" x="-300.00" y="0.00" incLanes="E11_0 E11_1 E11_2 E11_3 -E14_0 -E14_1 -E14_2 -E14_3 -E12_0 -E12_1 -E12_2 -E12_3 E13_0 E13_1 E13_2 E13_3" intLanes=":J24_0_0 :J24_1_0 :J24_1_1 :J24_1_2 :J24_20_0 :J24_5_0 :J24_6_0 :J24_6_1 :J24_6_2 :J24_21_0 :J24_10_0 :J24_11_0 :J24_11_1 :J24_11_2 :J24_22_0 :J24_15_0 :J24_16_0 :J24_16_1 :J24_16_2 :J24_23_0" shape="-312.80,16.80 -287.20,16.80 -286.76,14.58 -286.20,13.80 -285.42,13.24 -284.42,12.91 -283.20,12.80 -283.20,-12.80 -285.42,-13.24 -286.20,-13.80 -286.76,-14.58 -287.09,-15.58 -287.20,-16.80 -312.80,-16.80 -313.24,-14.58 -313.80,-13.80 -314.58,-13.24 -315.58,-12.91 -316.80,-12.80 -316.80,12.80 -314.58,13.24 -313.80,13.80 -313.24,14.58 -312.91,15.58">
        <request index="0"  response="00000000000000000000" foes="00000000000111000000" cont="0"/>
        <request index="1"  response="10000000000000000000" foes="11111100000111000000" cont="0"/>
        <request index="2"  response="10000000000000000000" foes="11111100000111000000" cont="0"/>
        <request index="3"  response="10000000000000000000" foes="11111100000111000000" cont="0"/>
        <request index="4"  response="10000011101000000000" foes="10000011101111000000" cont="1"/>
        <request index="5"  response="00000011100000000000" foes="00000011100000000000" cont="0"/>
        <request index="6"  response="00000011100000011111" foes="10000011100000011111" cont="0"/>
        <request index="7"  response="00000011100000011111" foes="10000011100000011111" cont="0"/>
        <request index="8"  response="00000011100000011111" foes="10000011100000011111" cont="0"/>
        <request index="9"  response="01110111100000010000" foes="01110111100000010000" cont="1"/>
        <request index="10" response="00000000000000000000" foes="01110000000000000000" cont="0"/>
        <request index="11" response="00000000001000000000" foes="01110000001111110000" cont="0"/>
        <request index="12" response="00000000001000000000" foes="01110000001111110000" cont="0"/>
        <request index="13" response="00000000001000000000" foes="01110000001111110000" cont="0"/>
        <request index="14" response="10000000001000001110" foes="11110000001000001110" cont="1"/>
        <request index="15" response="00000000000000001110" foes="00000000000000001110" cont="0"/>
        <request index="16" response="00000111110000001110" foes="00000111111000001110" cont="0"/>
        <request index="17" response="00000111110000001110" foes="00000111111000001110" cont="0"/>
        <request index="18" response="00000111110000001110" foes="00000111111000001110" cont="0"/>
        <request index="19" response="00000100000111011110" foes="00000100000111011110" cont="1"/>
    </junction>
    <junction id="J25" type="dead_end" x="-300.00" y="-400.00" incLanes="E12_0 E12_1 E12_2 E12_3" intLanes="" shape="-300.00,-400.00 -312.80,-400.00 -300.00,-400.00"/>
    <junction id="J26" type="dead_end" x="-800.00" y="0.00" incLanes="-E13_0 -E13_1 -E13_2 -E13_3" intLanes="" shape="-800.00,0.00 -800.00,12.80 -800.00,0.00"/>
    <junction id="J27" type="traffic_light" x="600.00" y="0.00" incLanes="E16_0 E16_1 E16_2 E16_3 -E15_0 -E15_1 -E15_2 -E15_3 -E17_0 -E17_1 -E17_2 -E17_3 E14_0 E14_1 E14_2 E14_3" intLanes=":J27_0_0 :J27_1_0 :J27_1_1 :J27_1_2 :J27_4_0 :J27_5_0 :J27_6_0 :J27_6_1 :J27_8_0 :J27_9_0 :J27_10_0 :J27_10_1 :J27_10_2 :J27_13_0 :J27_14_0 :J27_15_0 :J27_15_1 :J27_17_0" shape="587.20,16.80 612.80,16.80 613.24,14.58 613.80,13.80 614.58,13.24 615.58,12.91 616.80,12.80 616.80,-12.80 614.58,-13.24 613.80,-13.80 613.24,-14.58 612.91,-15.58 612.80,-16.80 587.20,-16.80 586.76,-14.58 586.20,-13.80 585.42,-13.24 584.42,-12.91 583.20,-12.80 583.20,12.80 585.42,13.24 586.20,13.80 586.76,14.58 587.09,15.58">
        <request index="0"  response="000000000000000000" foes="000000000000000000" cont="0"/>
        <request index="1"  response="000000000000000000" foes="111110000011000000" cont="0"/>
        <request index="2"  response="000000000000000000" foes="111110000011000000" cont="0"/>
        <request index="3"  response="000000000000000000" foes="111110000011000000" cont="0"/>
        <request index="4"  response="000001110000000000" foes="100001110111000000" cont="0"/>
        <request index="5"  response="000001110000000000" foes="000001110000000000" cont="0"/>
        <request index="6"  response="000001110000011110" foes="100001110000011110" cont="0"/>
        <request index="7"  response="000001110000011110" foes="100001110000011110" cont="0"/>
        <request index="8"  response="011011110000010000" foes="011011110000010000" cont="0"/>
        <request index="9"  response="000000000000000000" foes="000000000000000000" cont="0"/>
        <request index="10" response="000000000000000000" foes="011000000111110000" cont="0"/>
        <request index="11" response="000000000000000000" foes="011000000111110000" cont="0"/>
        <request index="12" response="000000000000000000" foes="011000000111110000" cont="0"/>
        <request index="13" response="000000000000001110" foes="111000000100001110" cont="0"/>
        <request index="14" response="000000000000001110" foes="000000000000001110" cont="0"/>
        <request index="15" response="000011110000001110" foes="000011110100001110" cont="0"/>
        <request index="16" response="000011110000001110" foes="000011110100001110" cont="0"/>
        <request index="17" response="000010000011011110" foes="000010000011011110" cont="0"/>
    </junction>
    <junction id="J28" type="dead_end" x="1000.00" y="0.00" incLanes="E15_0 E15_1 E15_2 E15_3" intLanes="" shape="1000.00,0.00 1000.00,-12.80 1000.00,0.00"/>
    <junction id="J29" type="dead_end" x="600.00" y="400.00" incLanes="-E16_0 -E16_1 -E16_2 -E16_3" intLanes="" shape="600.00,400.00 612.80,400.00 600.00,400.00"/>
    <junction id="J30" type="dead_end" x="600.00" y="-400.00" incLanes="E17_0 E17_1 E17_2 E17_3" intLanes="" shape="600.00,-400.00 587.20,-400.00 600.00,-400.00"/>

    <junction id=":J24_20_0" type="internal" x="-297.76" y="4.26" incLanes=":J24_4_0 -E12_0 -E12_1 -E12_2" intLanes=":J24_6_0 :J24_6_1 :J24_6_2 :J24_9_0 :J24_10_0 :J24_11_0 :J24_11_1 :J24_11_2 :J24_16_0 :J24_16_1 :J24_16_2 :J24_19_0"/>
    <junction id=":J24_21_0" type="internal" x="-295.74" y="-2.24" incLanes=":J24_9_0 E13_0 E13_1 E13_2" intLanes=":J24_1_0 :J24_1_1 :J24_1_2 :J24_4_0 :J24_11_0 :J24_11_1 :J24_11_2 :J24_14_0 :J24_15_0 :J24_16_0 :J24_16_1 :J24_16_2"/>
    <junction id=":J24_22_0" type="internal" x="-302.24" y="-4.26" incLanes=":J24_14_0 E11_0 E11_1 E11_2" intLanes=":J24_0_0 :J24_1_0 :J24_1_1 :J24_1_2 :J24_6_0 :J24_6_1 :J24_6_2 :J24_9_0 :J24_16_0 :J24_16_1 :J24_16_2 :J24_19_0"/>
    <junction id=":J24_23_0" type="internal" x="-304.26" y="2.24" incLanes=":J24_19_0 -E14_0 -E14_1 -E14_2" intLanes=":J24_1_0 :J24_1_1 :J24_1_2 :J24_4_0 :J24_5_0 :J24_6_0 :J24_6_1 :J24_6_2 :J24_11_0 :J24_11_1 :J24_11_2 :J24_14_0"/>

    <connection from="-E12" to="E14" fromLane="0" toLane="0" via=":J24_10_0" tl="J24" linkIndex="10" dir="r" state="O"/>
    <connection from="-E12" to="-E11" fromLane="0" toLane="0" via=":J24_11_0" tl="J24" linkIndex="11" dir="s" state="O"/>
    <connection from="-E12" to="-E11" fromLane="1" toLane="1" via=":J24_11_1" tl="J24" linkIndex="12" dir="s" state="O"/>
    <connection from="-E12" to="-E11" fromLane="2" toLane="2" via=":J24_11_2" tl="J24" linkIndex="13" dir="s" state="O"/>
    <connection from="-E12" to="-E13" fromLane="3" toLane="3" via=":J24_14_0" tl="J24" linkIndex="14" dir="l" state="o"/>
    <connection from="-E14" to="-E11" fromLane="0" toLane="0" via=":J24_5_0" tl="J24" linkIndex="5" dir="r" state="o"/>
    <connection from="-E14" to="-E13" fromLane="0" toLane="0" via=":J24_6_0" tl="J24" linkIndex="6" dir="s" state="o"/>
    <connection from="-E14" to="-E13" fromLane="1" toLane="1" via=":J24_6_1" tl="J24" linkIndex="7" dir="s" state="o"/>
    <connection from="-E14" to="-E13" fromLane="2" toLane="2" via=":J24_6_2" tl="J24" linkIndex="8" dir="s" state="o"/>
    <connection from="-E14" to="E12" fromLane="3" toLane="3" via=":J24_9_0" tl="J24" linkIndex="9" dir="l" state="o"/>
    <connection from="-E15" to="-E16" fromLane="0" toLane="0" via=":J27_5_0" tl="J27" linkIndex="5" dir="r" state="o"/>
    <connection from="-E15" to="-E14" fromLane="1" toLane="1" via=":J27_6_0" tl="J27" linkIndex="6" dir="s" state="o"/>
    <connection from="-E15" to="-E14" fromLane="2" toLane="2" via=":J27_6_1" tl="J27" linkIndex="7" dir="s" state="o"/>
    <connection from="-E15" to="E17" fromLane="3" toLane="3" via=":J27_8_0" tl="J27" linkIndex="8" dir="l" state="o"/>
    <connection from="-E17" to="E15" fromLane="0" toLane="0" via=":J27_9_0" tl="J27" linkIndex="9" dir="r" state="O"/>
    <connection from="-E17" to="-E16" fromLane="0" toLane="0" via=":J27_10_0" tl="J27" linkIndex="10" dir="s" state="O"/>
    <connection from="-E17" to="-E16" fromLane="1" toLane="1" via=":J27_10_1" tl="J27" linkIndex="11" dir="s" state="O"/>
    <connection from="-E17" to="-E16" fromLane="2" toLane="2" via=":J27_10_2" tl="J27" linkIndex="12" dir="s" state="O"/>
    <connection from="-E17" to="-E14" fromLane="3" toLane="3" via=":J27_13_0" tl="J27" linkIndex="13" dir="l" state="o"/>
    <connection from="E11" to="-E13" fromLane="0" toLane="0" via=":J24_0_0" tl="J24" linkIndex="0" dir="r" state="O"/>
    <connection from="E11" to="E12" fromLane="0" toLane="0" via=":J24_1_0" tl="J24" linkIndex="1" dir="s" state="O"/>
    <connection from="E11" to="E12" fromLane="1" toLane="1" via=":J24_1_1" tl="J24" linkIndex="2" dir="s" state="O"/>
    <connection from="E11" to="E12" fromLane="2" toLane="2" via=":J24_1_2" tl="J24" linkIndex="3" dir="s" state="O"/>
    <connection from="E11" to="E14" fromLane="3" toLane="3" via=":J24_4_0" tl="J24" linkIndex="4" dir="l" state="o"/>
    <connection from="E13" to="E12" fromLane="0" toLane="0" via=":J24_15_0" tl="J24" linkIndex="15" dir="r" state="o"/>
    <connection from="E13" to="E14" fromLane="0" toLane="0" via=":J24_16_0" tl="J24" linkIndex="16" dir="s" state="o"/>
    <connection from="E13" to="E14" fromLane="1" toLane="1" via=":J24_16_1" tl="J24" linkIndex="17" dir="s" state="o"/>
    <connection from="E13" to="E14" fromLane="2" toLane="2" via=":J24_16_2" tl="J24" linkIndex="18" dir="s" state="o"/>
    <connection from="E13" to="-E11" fromLane="3" toLane="3" via=":J24_19_0" tl="J24" linkIndex="19" dir="l" state="o"/>
    <connection from="E14" to="E17" fromLane="0" toLane="0" via=":J27_14_0" tl="J27" linkIndex="14" dir="r" state="o"/>
    <connection from="E14" to="E15" fromLane="1" toLane="1" via=":J27_15_0" tl="J27" linkIndex="15" dir="s" state="o"/>
    <connection from="E14" to="E15" fromLane="2" toLane="2" via=":J27_15_1" tl="J27" linkIndex="16" dir="s" state="o"/>
    <connection from="E14" to="-E16" fromLane="3" toLane="3" via=":J27_17_0" tl="J27" linkIndex="17" dir="l" state="o"/>
    <connection from="E16" to="-E14" fromLane="0" toLane="0" via=":J27_0_0" tl="J27" linkIndex="0" dir="r" state="O"/>
    <connection from="E16" to="E17" fromLane="0" toLane="0" via=":J27_1_0" tl="J27" linkIndex="1" dir="s" state="O"/>
    <connection from="E16" to="E17" fromLane="1" toLane="1" via=":J27_1_1" tl="J27" linkIndex="2" dir="s" state="O"/>
    <connection from="E16" to="E17" fromLane="2" toLane="2" via=":J27_1_2" tl="J27" linkIndex="3" dir="s" state="O"/>
    <connection from="E16" to="E15" fromLane="3" toLane="3" via=":J27_4_0" tl="J27" linkIndex="4" dir="l" state="o"/>

    <connection from=":J24_0" to="-E13" fromLane="0" toLane="0" dir="r" state="M"/>
    <connection from=":J24_1" to="E12" fromLane="0" toLane="0" dir="s" state="M"/>
    <connection from=":J24_1" to="E12" fromLane="1" toLane="1" dir="s" state="M"/>
    <connection from=":J24_1" to="E12" fromLane="2" toLane="2" dir="s" state="M"/>
    <connection from=":J24_4" to="E14" fromLane="0" toLane="3" via=":J24_20_0" dir="l" state="m"/>
    <connection from=":J24_20" to="E14" fromLane="0" toLane="3" dir="l" state="M"/>
    <connection from=":J24_5" to="-E11" fromLane="0" toLane="0" dir="r" state="M"/>
    <connection from=":J24_6" to="-E13" fromLane="0" toLane="0" dir="s" state="M"/>
    <connection from=":J24_6" to="-E13" fromLane="1" toLane="1" dir="s" state="M"/>
    <connection from=":J24_6" to="-E13" fromLane="2" toLane="2" dir="s" state="M"/>
    <connection from=":J24_9" to="E12" fromLane="0" toLane="3" via=":J24_21_0" dir="l" state="m"/>
    <connection from=":J24_21" to="E12" fromLane="0" toLane="3" dir="l" state="M"/>
    <connection from=":J24_10" to="E14" fromLane="0" toLane="0" dir="r" state="M"/>
    <connection from=":J24_11" to="-E11" fromLane="0" toLane="0" dir="s" state="M"/>
    <connection from=":J24_11" to="-E11" fromLane="1" toLane="1" dir="s" state="M"/>
    <connection from=":J24_11" to="-E11" fromLane="2" toLane="2" dir="s" state="M"/>
    <connection from=":J24_14" to="-E13" fromLane="0" toLane="3" via=":J24_22_0" dir="l" state="m"/>
    <connection from=":J24_22" to="-E13" fromLane="0" toLane="3" dir="l" state="M"/>
    <connection from=":J24_15" to="E12" fromLane="0" toLane="0" dir="r" state="M"/>
    <connection from=":J24_16" to="E14" fromLane="0" toLane="0" dir="s" state="M"/>
    <connection from=":J24_16" to="E14" fromLane="1" toLane="1" dir="s" state="M"/>
    <connection from=":J24_16" to="E14" fromLane="2" toLane="2" dir="s" state="M"/>
    <connection from=":J24_19" to="-E11" fromLane="0" toLane="3" via=":J24_23_0" dir="l" state="m"/>
    <connection from=":J24_23" to="-E11" fromLane="0" toLane="3" dir="l" state="M"/>
    <connection from=":J27_0" to="-E14" fromLane="0" toLane="0" dir="r" state="M"/>
    <connection from=":J27_1" to="E17" fromLane="0" toLane="0" dir="s" state="M"/>