<routes>
    <!-- Define emergency vehicle type -->
    <vType id="emergency" accel="3.0" decel="6.0" color="1,0,0" maxSpeed="20" sigma="0.5" emergency="true" />
    <!-- Define standard vehicle type -->
    <vType id="standard_car" accel="1.0" decel="4.5" length="5.0" minGap="2.5" maxSpeed="25" sigma="0.5" />
    <route id="W_N1" edges="E13 -E11" />
    <route id="W_N2" edges="E13 E14 -E16" />
    <route id="W_E" edges="E13 E14 E15" />
    <route id="W_S1" edges="E13 E12" />
    <route id="W_S2" edges="E13 E14 E17" />
    <route id="N_W1" edges="E11 -E13" />
    <route id="N_W2" edges="E16 -E14 -E13" />
    <route id="N_E1" edges="E11 E14 E15" />
    <route id="N_E2" edges="E16 E15" />
    <route id="N_S1" edges="-E12 -E11" />
    <route id="N_S2" edges="-E17 -E16" />
    <route id="E_W" edges="-E15 -E14 -E13" />
    <route id="E_N1" edges="-E15 -E14 -E11" />
    <route id="E_N2" edges="-E15 -E16" />
    <route id="E_S1" edges="-E15 E17" />
    <route id="E_S2" edges="-E15 -E14 E12" />
    <route id="S_N1" edges="-E12 -E11" />
    <route id="S_N2" edges="-E17 -E16" />
    <route id="S_E1" edges="-E17 E15" />
    <route id="S_W1" edges="-E12 -E13" />
    <route id="S_W2" edges="-E17 -E14 -E13" />
    <vehicle id="veh_0" type="standard_car" route="E_S1" depart="19" departLane="random" departSpeed="10" />
    <vehicle id="veh_1" type="standard_car" route="E_N2" depart="97" departLane="random" departSpeed="10" />
    <vehicle id="veh_2" type="standard_car" route="E_S2" depart="202" departLane="random" departSpeed="10" />
    <vehicle id="veh_3" type="standard_car" route="S_W2" depart="213" departLane="random" departSpeed="10" />
    <vehicle id="veh_4" type="standard_car" route="S_E1" depart="227" departLane="random" departSpeed="10" />
    <vehicle id="veh_5" type="standard_car" route="E_S1" depart="245" departLane="random" departSpeed="10" />
    <vehicle id="veh_6" type="standard_car" route="E_N1" depart="246" departLane="random" departSpeed="10" />
    <vehicle id="veh_7" type="standard_car" route="N_W1" depart="247" departLane="random" departSpeed="10" />
    <vehicle id="veh_8" type="standard_car" route="E_N1" depart="252" departLane="random" departSpeed="10" />
    <vehicle id="veh_9" type="standard_car" route="E_N1" depart="255" departLane="random" departSpeed="10" />
    <vehicle id="veh_10" type="standard_car" route="E_N1" depart="293" departLane="random" departSpeed="10" />
    <vehicle id="veh_11" type="standard_car" route="N_E1" depart="300" departLane="random" departSpeed="10" />
    <vehicle id="veh_12" type="standard_car" route="N_E1" depart="305" departLane="random" departSpeed="10" />
    <vehicle id="veh_13" type="standard_car" route="E_W" depart="359" departLane="random" departSpeed="10" />
    <vehicle id="veh_14" type="standard_car" route="E_N1" depart="384" departLane="random" departSpeed="10" />
    <vehicle id="veh_15" type="standard_car" route="S_E1" depart="407" departLane="random" departSpeed="10" />
    <vehicle id="veh_16" type="standard_car" route="N_W2" depart="422" departLane="random" departSpeed="10" />
    <vehicle id="veh_17" type="standard_car" route="S_N1" depart="447" departLane="random" departSpeed="10" />
    <vehicle id="veh_18" type="standard_car" route="N_W1" depart="470" departLane="random" departSpeed="10" />
    <vehicle id="veh_19" type="standard_car" route="W_E" depart="470" departLane="random" departSpeed="10" />
    <vehicle id="veh_20" type="standard_car" route="W_N2" depart="472" departLane="random" departSpeed="10" />
    <vehicle id="veh_21" type="standard_car" route="E_W" depart="472" departLane="random" departSpeed="10" />
    <vehicle id="veh_22" type="standard_car" route="N_W1" depart="485" departLane="random" departSpeed="10" />
    <vehicle id="veh_23" type="standard_car" route="N_S1" depart="492" departLane="random" departSpeed="10" />
    <vehicle id="veh_24" type="standard_car" route="S_W2" depart="537" departLane="random" departSpeed="10" />
    <vehicle id="veh_25" type="standard_car" route="E_W" depart="560" departLane="random" departSpeed="10" />
    <vehicle id="veh_26" type="standard_car" route="W_N2" depart="579" departLane="random" departSpeed="10" />
    <vehicle id="veh_27" type="standard_car" route="S_E1" depart="591" departLane="random" departSpeed="10" />
    <vehicle id="veh_28" type="standard_car" route="W_N1" depart="594" departLane="random" departSpeed="10" />
    <vehicle id="veh_29" type="standard_car" route="S_W2" depart="607" departLane="random" departSpeed="10" />
    <vehicle id="veh_30" type="standard_car" route="N_E1" depart="628" departLane="random" departSpeed="10" />
    <vehicle id="veh_31" type="standard_car" route="W_N1" depart="647" departLane="random" departSpeed="10" />
    <vehicle id="veh_32" type="standard_car" route="W_E" depart="655" departLane="random" departSpeed="10" />
    <vehicle id="veh_33" type="standard_car" route="S_W2" depart="656" departLane="random" departSpeed="10" />
    <vehicle id="veh_34" type="standard_car" route="W_S1" depart="672" departLane="random" departSpeed="10" />
    <vehicle id="veh_35" type="standard_car" route="N_W2" depart="689" departLane="random" departSpeed="10" />
    <vehicle id="veh_36" type="standard_car" route="E_N1" depart="691" departLane="random" departSpeed="10" />
    <vehicle id="veh_37" type="standard_car" route="N_E1" depart="692" departLane="random" departSpeed="10" />
    <vehicle id="veh_38" type="standard_car" route="N_W2" depart="697" departLane="random" departSpeed="10" />
    <vehicle id="veh_39" type="standard_car" route="S_W1" depart="700" departLane="random" departSpeed="10" />
    <vehicle id="veh_40" type="standard_car" route="E_S2" depart="717" departLane="random" departSpeed="10" />
    <vehicle id="veh_41" type="standard_car" route="S_N1" depart="717" departLane="random" departSpeed="10" />
    <vehicle id="veh_42" type="standard_car" route="N_W2" depart="743" departLane="random" departSpeed="10" />
    <vehicle id="veh_43" type="standard_car" route="E_N2" depart="765" departLane="random" departSpeed="10" />
    <vehicle id="veh_44" type="standard_car" route="W_S2" depart="777" departLane="random" departSpeed="10" />
    <vehicle id="veh_45" type="standard_car" route="W_E" depart="783" departLane="random" departSpeed="10" />
    <vehicle id="veh_46" type="standard_car" route="N_S2" depart="817" departLane="random" departSpeed="10" />
    <vehicle id="veh_47" type="standard_car" route="N_S1" depart="835" departLane="random" departSpeed="10" />
    <vehicle id="veh_48" type="standard_car" route="N_S1" depart="839" departLane="random" departSpeed="10" />
    <vehicle id="veh_49" type="standard_car" route="E_N2" depart="846" departLane="random" departSpeed="10" />
    <vehicle id="veh_50" type="standard_car" route="S_W2" depart="858" departLane="random" departSpeed="10" />
    <vehicle id="veh_51" type="standard_car" route="E_N1" depart="861" departLane="random" departSpeed="10" />
    <vehicle id="veh_52" type="standard_car" route="S_E1" depart="874" departLane="random" departSpeed="10" />
    <vehicle id="veh_53" type="standard_car" route="N_S2" depart="878" departLane="random" departSpeed="10" />
    <vehicle id="veh_54" type="standard_car" route="E_W" depart="910" departLane="random" departSpeed="10" />
    <vehicle id="veh_55" type="standard_car" route="N_S1" depart="927" departLane="random" departSpeed="10" />
    <vehicle id="veh_56" type="standard_car" route="W_S2" depart="930" departLane="random" departSpeed="10" />
    <vehicle id="veh_57" type="standard_car" route="S_N1" depart="936" departLane="random" departSpeed="10" />
    <vehicle id="veh_58" type="standard_car" route="S_N1" depart="943" departLane="random" departSpeed="10" />
    <vehicle id="veh_59" type="standard_car" route="S_W1" depart="957" departLane="random" departSpeed="10" />
    <vehicle id="veh_60" type="standard_car" route="N_S2" depart="971" departLane="random" departSpeed="10" />
    <vehicle id="veh_61" type="standard_car" route="S_W2" depart="988" departLane="random" departSpeed="10" />
    <vehicle id="veh_62" type="standard_car" route="W_S1" depart="995" departLane="random" departSpeed="10" />
    <vehicle id="veh_63" type="standard_car" route="N_S1" depart="999" departLane="random" departSpeed="10" />
    <vehicle id="veh_64" type="standard_car" route="S_N2" depart="1000" departLane="random" departSpeed="10" />
    <vehicle id="veh_65" type="standard_car" route="W_E" depart="1010" departLane="random" departSpeed="10" />
    <vehicle id="veh_66" type="standard_car" route="W_S2" depart="1030" departLane="random" departSpeed="10" />
    <vehicle id="veh_67" type="standard_car" route="E_N2" depart="1033" departLane="random" departSpeed="10" />
    <vehicle id="veh_68" type="standard_car" route="E_S1" depart="1049" departLane="random" departSpeed="10" />
    <vehicle id="veh_69" type="standard_car" route="S_N1" depart="1061" departLane="random" departSpeed="10" />
    <vehicle id="veh_70" type="standard_car" route="N_E2" depart="1080" departLane="random" departSpeed="10" />
    <vehicle id="veh_71" type="standard_car" route="W_E" depart="1104" departLane="random" departSpeed="10" />
    <vehicle id="veh_72" type="standard_car" route="W_S1" depart="1108" departLane="random" departSpeed="10" />
    <vehicle id="veh_73" type="standard_car" route="E_N2" depart="1112" departLane="random" departSpeed="10" />
    <vehicle id="veh_74" type="standard_car" route="N_S1" depart="1132" departLane="random" departSpeed="10" />
    <vehicle id="veh_75" type="standard_car" route="W_S2" depart="1172" departLane="random" departSpeed="10" />
    <vehicle id="veh_76" type="standard_car" route="W_S2" depart="1177" departLane="random" departSpeed="10" />
    <vehicle id="veh_77" type="standard_car" route="N_E2" depart="1179" departLane="random" departSpeed="10" />
    <vehicle id="veh_78" type="standard_car" route="S_E1" depart="1197" departLane="random" departSpeed="10" />
    <vehicle id="emergency_0" type="emergency" route="E_W" depart="1223" departLane="random" departSpeed="10" />
    <vehicle id="veh_79" type="standard_car" route="W_N2" depart="1224" departLane="random" departSpeed="10" />
    <vehicle id="veh_80" type="standard_car" route="N_W2" depart="1245" departLane="random" departSpeed="10" />
    <vehicle id="veh_81" type="standard_car" route="S_W1" depart="1261" departLane="random" departSpeed="10" />
    <vehicle id="veh_82" type="standard_car" route="E_S1" depart="1280" departLane="random" departSpeed="10" />
    <vehicle id="veh_83" type="standard_car" route="N_E2" depart="1282" departLane="random" departSpeed="10" />
    <vehicle id="veh_84" type="standard_car" route="N_E1" depart="1304" departLane="random" departSpeed="10" />
    <vehicle id="veh_85" type="standard_car" route="S_N1" depart="1316" departLane="random" departSpeed="10" />
    <vehicle id="veh_86" type="standard_car" route="N_W1" depart="1316" departLane="random" departSpeed="10" />
    <vehicle id="veh_87" type="standard_car" route="W_E" depart="1322" departLane="random" departSpeed="10" />
    <vehicle id="veh_88" type="standard_car" route="W_E" depart="1323" departLane="random" departSpeed="10" />
    <vehicle id="veh_89" type="standard_car" route="E_S1" depart="1327" departLane="random" departSpeed="10" />
    <vehicle id="veh_90" type="standard_car" route="E_W" depart="1331" departLane="random" departSpeed="10" />
    <vehicle id="veh_91" type="standard_car" route="N_S2" depart="1346" departLane="random" departSpeed="10" />
    <vehicle id="veh_92" type="standard_car" route="N_E2" depart="1387" departLane="random" departSpeed="10" />
    <vehicle id="veh_93" type="standard_car" route="S_N1" depart="1392" departLane="random" departSpeed="10" />
    <vehicle id="veh_94" type="standard_car" route="N_W1" depart="1469" departLane="random" departSpeed="10" />
    <vehicle id="veh_95" type="standard_car" route="N_S1" depart="1480" departLane="random" departSpeed="10" />
    <vehicle id="veh_96" type="standard_car" route="E_N2" depart="1485" departLane="random" departSpeed="10" />
    <vehicle id="veh_97" type="standard_car" route="N_E2" depart="1531" departLane="random" departSpeed="10" />
    <vehicle id="veh_98" type="standard_car" route="N_S2" depart="1552" departLane="random" departSpeed="10" />
    <vehicle id="veh_99" type="standard_car" route="E_W" depart="1558" departLane="random" departSpeed="10" />
    <vehicle id="veh_100" type="standard_car" route="N_W2" depart="1571" departLane="random" departSpeed="10" />
    <vehicle id="veh_101" type="standard_car" route="W_N1" depart="1577" departLane="random" departSpeed="10" />
    <vehicle id="veh_102" type="standard_car" route="E_S1" depart="1584" departLane="random" departSpeed="10" />
    <vehicle id="veh_103" type="standard_car" route="W_S2" depart="1584" departLane="random" departSpeed="10" />
    <vehicle id="veh_104" type="standard_car" route="E_W" depart="1611" departLane="random" departSpeed="10" />
    <vehicle id="veh_105" type="standard_car" route="W_S1" depart="1615" departLane="random" departSpeed="10" />
    <vehicle id="veh_106" type="standard_car" route="W_N1" depart="1622" departLane="random" departSpeed="10" />
    <vehicle id="veh_107" type="standard_car" route="E_S1" depart="1628" departLane="random" departSpeed="10" />
    <vehicle id="veh_108" type="standard_car" route="S_N2" depart="1630" departLane="random" departSpeed="10" />
    <vehicle id="veh_109" type="standard_car" route="N_W2" depart="1633" departLane="random" departSpeed="10" />
    <vehicle id="veh_110" type="standard_car" route="W_N1" depart="1649" departLane="random" departSpeed="10" />
    <vehicle id="veh_111" type="standard_car" route="W_N2" depart="1651" departLane="random" departSpeed="10" />
    <vehicle id="veh_112" type="standard_car" route="N_W2" depart="1662" departLane="random" departSpeed="10" />
    <vehicle id="veh_113" type="standard_car" route="W_S2" depart="1663" departLane="random" departSpeed="10" />
    <vehicle id="veh_114" type="standard_car" route="S_E1" depart="1673" departLane="random" departSpeed="10" />
    <vehicle id="veh_115" type="standard_car" route="N_W1" depart="1676" departLane="random" departSpeed="10" />
    <vehicle id="veh_116" type="standard_car" route="S_W2" depart="1680" departLane="random" departSpeed="10" />
    <vehicle id="veh_117" type="standard_car" route="N_W2" depart="1690" departLane="random" departSpeed="10" />
    <vehicle id="veh_118" type="standard_car" route="S_E1" depart="1692" departLane="random" departSpeed="10" />
    <vehicle id="veh_119" type="standard_car" route="S_E1" depart="1698" departLane="random" departSpeed="10" />
    <vehicle id="veh_120" type="standard_car" route="E_S1" depart="1738" departLane="random" departSpeed="10" />
    <vehicle id="veh_121" type="standard_car" route="N_E1" depart="1763" departLane="random" departSpeed="10" />
    <vehicle id="veh_122" type="standard_car" route="S_N1" depart="1764" departLane="random" departSpeed="10" />
    <vehicle id="veh_123" type="standard_car" route="N_E1" depart="1770" departLane="random" departSpeed="10" />
    <vehicle id="veh_124" type="standard_car" route="E_W" depart="1775" departLane="random" departSpeed="10" />
    <vehicle id="veh_125" type="standard_car" route="E_S1" depart="1779" departLane="random" departSpeed="10" />
    <vehicle id="veh_126" type="standard_car" route="N_E2" depart="1779" departLane="random" departSpeed="10" />
    <vehicle id="veh_127" type="standard_car" route="N_E2" depart="1794" departLane="random" departSpeed="10" />
    <vehicle id="veh_128" type="standard_car" route="N_E2" depart="1818" departLane="random" departSpeed="10" />
    <vehicle id="veh_129" type="standard_car" route="S_N1" depart="1878" departLane="random" departSpeed="10" />
    <vehicle id="veh_130" type="standard_car" route="W_E" depart="1879" departLane="random" departSpeed="10" />
    <vehicle id="veh_131" type="standard_car" route="W_N1" depart="1893" departLane="random" departSpeed="10" />
    <vehicle id="veh_132" type="standard_car" route="N_E1" depart="1896" departLane="random" departSpeed="10" />
    <vehicle id="veh_133" type="standard_car" route="E_N1" depart="1918" departLane="random" departSpeed="10" />
    <vehicle id="veh_134" type="standard_car" route="S_N2" depart="1935" departLane="random" departSpeed="10" />
    <vehicle id="veh_135" type="standard_car" route="W_N2" depart="1939" departLane="random" departSpeed="10" />
    <vehicle id="veh_136" type="standard_car" route="N_S2" depart="1950" departLane="random" departSpeed="10" />
    <vehicle id="veh_137" type="standard_car" route="N_S1" depart="1953" departLane="random" departSpeed="10" />
    <vehicle id="veh_138" type="standard_car" route="E_W" depart="1954" departLane="random" departSpeed="10" />
    <vehicle id="veh_139" type="standard_car" route="N_W1" depart="1960" departLane="random" departSpeed="10" />
    <vehicle id="veh_140" type="standard_car" route="S_N2" depart="1966" departLane="random" departSpeed="10" />
    <vehicle id="veh_141" type="standard_car" route="N_W1" depart="1974" departLane="random" departSpeed="10" />
    <vehicle id="veh_142" type="standard_car" route="N_S2" depart="2007" departLane="random" departSpeed="10" />
    <vehicle id="veh_143" type="standard_car" route="S_W2" depart="2011" departLane="random" departSpeed="10" />
    <vehicle id="veh_144" type="standard_car" route="E_S1" depart="2032" departLane="random" departSpeed="10" />
    <vehicle id="veh_145" type="standard_car" route="S_N2" depart="2048" departLane="random" departSpeed="10" />
    <vehicle id="veh_146" type="standard_car" route="N_S2" depart="2075" departLane="random" departSpeed="10" />
    <vehicle id="veh_147" type="standard_car" route="N_E2" depart="2101" departLane="random" departSpeed="10" />
    <vehicle id="veh_148" type="standard_car" route="S_N1" depart="2105" departLane="random" departSpeed="10" />
    <vehicle id="veh_149" type="standard_car" route="S_W1" depart="2111" departLane="random" departSpeed="10" />
    <vehicle id="veh_150" type="standard_car" route="E_N1" depart="2114" departLane="random" departSpeed="10" />
    <vehicle id="veh_151" type="standard_car" route="E_N2" depart="2120" departLane="random" departSpeed="10" />
    <vehicle id="veh_152" type="standard_car" route="S_N1" depart="2122" departLane="random" departSpeed="10" />
    <vehicle id="veh_153" type="standard_car" route="W_S2" depart="2122" departLane="random" departSpeed="10" />
    <vehicle id="veh_154" type="standard_car" route="S_E1" depart="2128" departLane="random" departSpeed="10" />
    <vehicle id="veh_155" type="standard_car" route="W_S2" depart="2131" departLane="random" departSpeed="10" />
    <vehicle id="veh_156" type="standard_car" route="W_S1" depart="2136" departLane="random" departSpeed="10" />
    <vehicle id="veh_157" type="standard_car" route="E_N1" depart="2189" departLane="random" departSpeed="10" />
    <vehicle id="veh_158" type="standard_car" route="W_E" depart="2246" departLane="random" departSpeed="10" />
    <vehicle id="veh_159" type="standard_car" route="E_N1" depart="2286" departLane="random" departSpeed="10" />
    <vehicle id="veh_160" type="standard_car" route="W_N1" depart="2286" departLane="random" departSpeed="10" />
    <vehicle id="veh_161" type="standard_car" route="W_N1" depart="2301" departLane="random" departSpeed="10" />
    <vehicle id="veh_162" type="standard_car" route="E_S2" depart="2309" departLane="random" departSpeed="10" />
    <vehicle id="veh_163" type="standard_car" route="W_S2" depart="2310" departLane="random" departSpeed="10" />
    <vehicle id="veh_164" type="standard_car" route="N_S2" depart="2392" departLane="random" departSpeed="10" />
    <vehicle id="veh_165" type="standard_car" route="E_N1" depart="2415" departLane="random" departSpeed="10" />
    <vehicle id="veh_166" type="standard_car" route="S_E1" depart="2445" departLane="random" departSpeed="10" />
    <vehicle id="veh_167" type="standard_car" route="N_W1" depart="2466" departLane="random" departSpeed="10" />
    <vehicle id="veh_168" type="standard_car" route="S_N1" depart="2524" departLane="random" departSpeed="10" />
    <vehicle id="veh_169" type="standard_car" route="W_N1" depart="2540" departLane="random" departSpeed="10" />
    <vehicle id="veh_170" type="standard_car" route="E_W" depart="2603" departLane="random" departSpeed="10" />
    <vehicle id="veh_171" type="standard_car" route="E_N1" depart="2611" departLane="random" departSpeed="10" />
    <vehicle id="veh_172" type="standard_car" route="E_W" depart="2611" departLane="random" departSpeed="10" />
    <vehicle id="veh_173" type="standard_car" route="W_S1" depart="2638" departLane="random" departSpeed="10" />
    <vehicle id="veh_174" type="standard_car" route="E_N1" depart="2652" departLane="random" departSpeed="10" />
    <vehicle id="veh_175" type="standard_car" route="E_S2" depart="2700" departLane="random" departSpeed="10" />
    <vehicle id="veh_176" type="standard_car" route="S_W1" depart="2707" departLane="random" departSpeed="10" />
    <vehicle id="veh_177" type="standard_car" route="E_N2" depart="2752" departLane="random" departSpeed="10" />
    <vehicle id="veh_178" type="standard_car" route="W_N2" depart="2752" departLane="random" departSpeed="10" />
    <vehicle id="veh_179" type="standard_car" route="W_S2" depart="2779" departLane="random" departSpeed="10" />
    <vehicle id="veh_180" type="standard_car" route="N_E1" depart="2784" departLane="random" departSpeed="10" />
    <vehicle id="veh_181" type="standard_car" route="W_S1" depart="2784" departLane="random" departSpeed="10" />
    <vehicle id="veh_182" type="standard_car" route="W_E" depart="2882" departLane="random" departSpeed="10" />
    <vehicle id="veh_183" type="standard_car" route="W_E" depart="2896" departLane="random" departSpeed="10" />
    <vehicle id="veh_184" type="standard_car" route="N_S2" depart="2916" departLane="random" departSpeed="10" />
    <vehicle id="veh_185" type="standard_car" route="E_S1" depart="2931" departLane="random" departSpeed="10" />
    <vehicle id="veh_186" type="standard_car" route="S_E1" depart="2951" departLane="random" departSpeed="10" />
    <vehicle id="veh_187" type="standard_car" route="N_W2" depart="2956" departLane="random" departSpeed="10" />
    <vehicle id="veh_188" type="standard_car" route="N_W2" depart="3062" departLane="random" departSpeed="10" />
    <vehicle id="veh_189" type="standard_car" route="S_N1" depart="3105" departLane="random" departSpeed="10" />
    <vehicle id="veh_190" type="standard_car" route="S_N2" depart="3110" departLane="random" departSpeed="10" />
    <vehicle id="veh_191" type="standard_car" route="N_W1" depart="3204" departLane="random" departSpeed="10" />
    <vehicle id="veh_192" type="standard_car" route="N_W2" depart="3293" departLane="random" departSpeed="10" />
    <vehicle id="veh_193" type="standard_car" route="N_E2" depart="3329" departLane="random" departSpeed="10" />
    <vehicle id="veh_194" type="standard_car" route="N_E2" depart="3343" departLane="random" departSpeed="10" />
    <vehicle id="veh_195" type="standard_car" route="N_W1" depart="3364" departLane="random" departSpeed="10" />
    <vehicle id="veh_196" type="standard_car" route="N_W1" depart="3371" departLane="random" departSpeed="10" />
    <vehicle id="emergency_1" type="emergency" route="E_S1" depart="3631" departLane="random" departSpeed="10" />
    <vehicle id="veh_197" type="standard_car" route="N_E1" depart="3808" departLane="random" departSpeed="10" />
    <vehicle id="veh_198" type="standard_car" route="E_S1" depart="3817" departLane="random" departSpeed="10" />
    <vehicle id="emergency_2" type="emergency" route="N_S1" depart="4206" departLane="random" departSpeed="10" />
    <vehicle id="veh_199" type="standard_car" route="N_W1" depart="4381" departLane="random" departSpeed="10" />
</routes>
