<routes>
            <vType accel="1.0" decel="4.5" id="standard_car" length="5.0" minGap="2.5" maxSpeed="25" sigma="0.5" />

            <route id="W_N" edges="W2TL TL2N"/>
            <route id="W_E" edges="W2TL TL2E"/>
            <route id="W_S" edges="W2TL TL2S"/>
            <route id="N_W" edges="N2TL TL2W"/>
            <route id="N_E" edges="N2TL TL2E"/>
            <route id="N_S" edges="N2TL TL2S"/>
            <route id="E_W" edges="E2TL TL2W"/>
            <route id="E_N" edges="E2TL TL2N"/>
            <route id="E_S" edges="E2TL TL2S"/>
            <route id="S_W" edges="S2TL TL2W"/>
            <route id="S_N" edges="S2TL TL2N"/>
            <route id="S_E" edges="S2TL TL2E"/>
    <vehicle id="W_N_0" type="standard_car" route="W_N" depart="238.0" departLane="random" departSpeed="10" />
    <vehicle id="S_N_1" type="standard_car" route="S_N" depart="254.0" departLane="random" departSpeed="10" />
    <vehicle id="W_E_2" type="standard_car" route="W_E" depart="311.0" departLane="random" departSpeed="10" />
    <vehicle id="E_W_3" type="standard_car" route="E_W" depart="323.0" departLane="random" departSpeed="10" />
    <vehicle id="E_W_4" type="standard_car" route="E_W" depart="356.0" departLane="random" departSpeed="10" />
    <vehicle id="W_E_5" type="standard_car" route="W_E" depart="402.0" departLane="random" departSpeed="10" />
    <vehicle id="E_W_6" type="standard_car" route="E_W" depart="406.0" departLane="random" departSpeed="10" />
    <vehicle id="S_E_7" type="standard_car" route="S_E" depart="423.0" departLane="random" departSpeed="10" />
    <vehicle id="E_S_8" type="standard_car" route="E_S" depart="431.0" departLane="random" departSpeed="10" />
    <vehicle id="E_N_9" type="standard_car" route="E_N" depart="446.0" departLane="random" departSpeed="10" />
    <vehicle id="E_W_10" type="standard_car" route="E_W" depart="516.0" departLane="random" departSpeed="10" />
    <vehicle id="E_N_11" type="standard_car" route="E_N" depart="518.0" departLane="random" departSpeed="10" />
    <vehicle id="W_E_12" type="standard_car" route="W_E" depart="524.0" departLane="random" departSpeed="10" />
    <vehicle id="S_N_13" type="standard_car" route="S_N" depart="549.0" departLane="random" departSpeed="10" />
    <vehicle id="S_N_14" type="standard_car" route="S_N" depart="649.0" departLane="random" departSpeed="10" />
    <vehicle id="W_S_15" type="standard_car" route="W_S" depart="653.0" departLane="random" departSpeed="10" />
    <vehicle id="S_N_16" type="standard_car" route="S_N" depart="657.0" departLane="random" departSpeed="10" />
    <vehicle id="E_W_17" type="standard_car" route="E_W" depart="680.0" departLane="random" departSpeed="10" />
    <vehicle id="E_W_18" type="standard_car" route="E_W" depart="684.0" departLane="random" departSpeed="10" />
    <vehicle id="S_N_19" type="standard_car" route="S_N" depart="690.0" departLane="random" departSpeed="10" />
    <vehicle id="W_E_20" type="standard_car" route="W_E" depart="706.0" departLane="random" departSpeed="10" />
    <vehicle id="E_W_21" type="standard_car" route="E_W" depart="714.0" departLane="random" departSpeed="10" />
    <vehicle id="S_N_22" type="standard_car" route="S_N" depart="719.0" departLane="random" departSpeed="10" />
    <vehicle id="W_E_23" type="standard_car" route="W_E" depart="752.0" departLane="random" departSpeed="10" />
    <vehicle id="E_S_24" type="standard_car" route="E_S" depart="756.0" departLane="random" departSpeed="10" />
    <vehicle id="N_S_25" type="standard_car" route="N_S" depart="758.0" departLane="random" departSpeed="10" />
    <vehicle id="E_S_26" type="standard_car" route="E_S" depart="761.0" departLane="random" departSpeed="10" />
    <vehicle id="W_S_27" type="standard_car" route="W_S" depart="766.0" departLane="random" departSpeed="10" />
    <vehicle id="N_S_28" type="standard_car" route="N_S" depart="779.0" departLane="random" departSpeed="10" />
    <vehicle id="E_N_29" type="standard_car" route="E_N" depart="787.0" departLane="random" departSpeed="10" />
    <vehicle id="S_N_30" type="standard_car" route="S_N" depart="814.0" departLane="random" departSpeed="10" />
    <vehicle id="S_E_31" type="standard_car" route="S_E" depart="816.0" departLane="random" departSpeed="10" />
    <vehicle id="W_S_32" type="standard_car" route="W_S" depart="822.0" departLane="random" departSpeed="10" />
    <vehicle id="N_S_33" type="standard_car" route="N_S" depart="839.0" departLane="random" departSpeed="10" />
    <vehicle id="S_N_34" type="standard_car" route="S_N" depart="853.0" departLane="random" departSpeed="10" />
    <vehicle id="E_N_35" type="standard_car" route="E_N" depart="853.0" departLane="random" departSpeed="10" />
    <vehicle id="W_E_36" type="standard_car" route="W_E" depart="861.0" departLane="random" departSpeed="10" />
    <vehicle id="E_W_37" type="standard_car" route="E_W" depart="891.0" departLane="random" departSpeed="10" />
    <vehicle id="W_S_38" type="standard_car" route="W_S" depart="908.0" departLane="random" departSpeed="10" />
    <vehicle id="S_N_39" type="standard_car" route="S_N" depart="934.0" departLane="random" departSpeed="10" />
    <vehicle id="N_S_40" type="standard_car" route="N_S" depart="946.0" departLane="random" departSpeed="10" />
    <vehicle id="W_S_41" type="standard_car" route="W_S" depart="955.0" departLane="random" departSpeed="10" />
    <vehicle id="N_S_42" type="standard_car" route="N_S" depart="960.0" departLane="random" departSpeed="10" />
    <vehicle id="W_S_43" type="standard_car" route="W_S" depart="962.0" departLane="random" departSpeed="10" />
    <vehicle id="N_S_44" type="standard_car" route="N_S" depart="988.0" departLane="random" departSpeed="10" />
    <vehicle id="W_N_45" type="standard_car" route="W_N" depart="995.0" departLane="random" departSpeed="10" />
    <vehicle id="E_W_46" type="standard_car" route="E_W" depart="998.0" departLane="random" departSpeed="10" />
    <vehicle id="E_W_47" type="standard_car" route="E_W" depart="1003.0" departLane="random" departSpeed="10" />
    <vehicle id="E_W_48" type="standard_car" route="E_W" depart="1007.0" departLane="random" departSpeed="10" />
    <vehicle id="S_N_49" type="standard_car" route="S_N" depart="1007.0" departLane="random" departSpeed="10" />
    <vehicle id="S_N_50" type="standard_car" route="S_N" depart="1008.0" departLane="random" departSpeed="10" />
    <vehicle id="S_N_51" type="standard_car" route="S_N" depart="1021.0" departLane="random" departSpeed="10" />
    <vehicle id="N_W_52" type="standard_car" route="N_W" depart="1045.0" departLane="random" departSpeed="10" />
    <vehicle id="N_S_53" type="standard_car" route="N_S" depart="1065.0" departLane="random" departSpeed="10" />
    <vehicle id="N_S_54" type="standard_car" route="N_S" depart="1088.0" departLane="random" departSpeed="10" />
    <vehicle id="S_N_55" type="standard_car" route="S_N" depart="1115.0" departLane="random" departSpeed="10" />
    <vehicle id="E_W_56" type="standard_car" route="E_W" depart="1131.0" departLane="random" departSpeed="10" />
    <vehicle id="N_S_57" type="standard_car" route="N_S" depart="1142.0" departLane="random" departSpeed="10" />
    <vehicle id="E_W_58" type="standard_car" route="E_W" depart="1147.0" departLane="random" departSpeed="10" />
    <vehicle id="W_E_59" type="standard_car" route="W_E" depart="1151.0" departLane="random" departSpeed="10" />
    <vehicle id="N_W_60" type="standard_car" route="N_W" depart="1162.0" departLane="random" departSpeed="10" />
    <vehicle id="W_S_61" type="standard_car" route="W_S" depart="1164.0" departLane="random" departSpeed="10" />
    <vehicle id="W_E_62" type="standard_car" route="W_E" depart="1165.0" departLane="random" departSpeed="10" />
    <vehicle id="W_E_63" type="standard_car" route="W_E" depart="1169.0" departLane="random" departSpeed="10" />
    <vehicle id="S_N_64" type="standard_car" route="S_N" depart="1184.0" departLane="random" departSpeed="10" />
    <vehicle id="W_E_65" type="standard_car" route="W_E" depart="1184.0" departLane="random" departSpeed="10" />
    <vehicle id="E_W_66" type="standard_car" route="E_W" depart="1190.0" departLane="random" departSpeed="10" />
    <vehicle id="S_N_67" type="standard_car" route="S_N" depart="1192.0" departLane="random" departSpeed="10" />
    <vehicle id="N_S_68" type="standard_car" route="N_S" depart="1208.0" departLane="random" departSpeed="10" />
    <vehicle id="N_S_69" type="standard_car" route="N_S" depart="1216.0" departLane="random" departSpeed="10" />
    <vehicle id="E_W_70" type="standard_car" route="E_W" depart="1220.0" departLane="random" departSpeed="10" />
    <vehicle id="S_W_71" type="standard_car" route="S_W" depart="1230.0" departLane="random" departSpeed="10" />
    <vehicle id="E_W_72" type="standard_car" route="E_W" depart="1259.0" departLane="random" departSpeed="10" />
    <vehicle id="N_S_73" type="standard_car" route="N_S" depart="1263.0" departLane="random" departSpeed="10" />
    <vehicle id="S_E_74" type="standard_car" route="S_E" depart="1264.0" departLane="random" departSpeed="10" />
    <vehicle id="W_E_75" type="standard_car" route="W_E" depart="1269.0" departLane="random" departSpeed="10" />
    <vehicle id="S_N_76" type="standard_car" route="S_N" depart="1272.0" departLane="random" departSpeed="10" />
    <vehicle id="E_W_77" type="standard_car" route="E_W" depart="1273.0" departLane="random" departSpeed="10" />
    <vehicle id="S_W_78" type="standard_car" route="S_W" depart="1280.0" departLane="random" departSpeed="10" />
    <vehicle id="E_W_79" type="standard_car" route="E_W" depart="1289.0" departLane="random" departSpeed="10" />
    <vehicle id="S_N_80" type="standard_car" route="S_N" depart="1292.0" departLane="random" departSpeed="10" />
    <vehicle id="S_N_81" type="standard_car" route="S_N" depart="1299.0" departLane="random" departSpeed="10" />
    <vehicle id="N_S_82" type="standard_car" route="N_S" depart="1309.0" departLane="random" departSpeed="10" />
    <vehicle id="N_S_83" type="standard_car" route="N_S" depart="1315.0" departLane="random" departSpeed="10" />
    <vehicle id="E_W_84" type="standard_car" route="E_W" depart="1326.0" departLane="random" departSpeed="10" />
    <vehicle id="N_S_85" type="standard_car" route="N_S" depart="1330.0" departLane="random" departSpeed="10" />
    <vehicle id="W_E_86" type="standard_car" route="W_E" depart="1333.0" departLane="random" departSpeed="10" />
    <vehicle id="N_S_87" type="standard_car" route="N_S" depart="1344.0" departLane="random" departSpeed="10" />
    <vehicle id="W_S_88" type="standard_car" route="W_S" depart="1344.0" departLane="random" departSpeed="10" />
    <vehicle id="S_N_89" type="standard_car" route="S_N" depart="1345.0" departLane="random" departSpeed="10" />
    <vehicle id="W_E_90" type="standard_car" route="W_E" depart="1345.0" departLane="random" departSpeed="10" />
    <vehicle id="N_W_91" type="standard_car" route="N_W" depart="1348.0" departLane="random" departSpeed="10" />
    <vehicle id="S_N_92" type="standard_car" route="S_N" depart="1354.0" departLane="random" departSpeed="10" />
    <vehicle id="S_N_93" type="standard_car" route="S_N" depart="1359.0" departLane="random" departSpeed="10" />
    <vehicle id="W_E_94" type="standard_car" route="W_E" depart="1378.0" departLane="random" departSpeed="10" />
    <vehicle id="E_W_95" type="standard_car" route="E_W" depart="1392.0" departLane="random" departSpeed="10" />
    <vehicle id="E_N_96" type="standard_car" route="E_N" depart="1394.0" departLane="random" departSpeed="10" />
    <vehicle id="N_E_97" type="standard_car" route="N_E" depart="1397.0" departLane="random" departSpeed="10" />
    <vehicle id="E_W_98" type="standard_car" route="E_W" depart="1417.0" departLane="random" departSpeed="10" />
    <vehicle id="N_S_99" type="standard_car" route="N_S" depart="1431.0" departLane="random" departSpeed="10" />
    <vehicle id="S_E_100" type="standard_car" route="S_E" depart="1439.0" departLane="random" departSpeed="10" />
    <vehicle id="S_N_101" type="standard_car" route="S_N" depart="1451.0" departLane="random" departSpeed="10" />
    <vehicle id="W_E_102" type="standard_car" route="W_E" depart="1470.0" departLane="random" departSpeed="10" />
    <vehicle id="W_S_103" type="standard_car" route="W_S" depart="1486.0" departLane="random" departSpeed="10" />
    <vehicle id="E_W_104" type="standard_car" route="E_W" depart="1499.0" departLane="random" departSpeed="10" />
    <vehicle id="S_N_105" type="standard_car" route="S_N" depart="1521.0" departLane="random" departSpeed="10" />
    <vehicle id="N_S_106" type="standard_car" route="N_S" depart="1521.0" departLane="random" departSpeed="10" />
    <vehicle id="N_W_107" type="standard_car" route="N_W" depart="1536.0" departLane="random" departSpeed="10" />
    <vehicle id="W_E_108" type="standard_car" route="W_E" depart="1558.0" departLane="random" departSpeed="10" />
    <vehicle id="N_W_109" type="standard_car" route="N_W" depart="1559.0" departLane="random" departSpeed="10" />
    <vehicle id="N_S_110" type="standard_car" route="N_S" depart="1615.0" departLane="random" departSpeed="10" />
    <vehicle id="E_W_111" type="standard_car" route="E_W" depart="1622.0" departLane="random" departSpeed="10" />
    <vehicle id="S_N_112" type="standard_car" route="S_N" depart="1627.0" departLane="random" departSpeed="10" />
    <vehicle id="E_W_113" type="standard_car" route="E_W" depart="1633.0" departLane="random" departSpeed="10" />
    <vehicle id="W_E_114" type="standard_car" route="W_E" depart="1637.0" departLane="random" departSpeed="10" />
    <vehicle id="W_E_115" type="standard_car" route="W_E" depart="1639.0" departLane="random" departSpeed="10" />
    <vehicle id="N_E_116" type="standard_car" route="N_E" depart="1645.0" departLane="random" departSpeed="10" />
    <vehicle id="S_W_117" type="standard_car" route="S_W" depart="1649.0" departLane="random" departSpeed="10" />
    <vehicle id="W_S_118" type="standard_car" route="W_S" depart="1649.0" departLane="random" departSpeed="10" />
    <vehicle id="N_S_119" type="standard_car" route="N_S" depart="1656.0" departLane="random" departSpeed="10" />
    <vehicle id="E_N_120" type="standard_car" route="E_N" depart="1674.0" departLane="random" departSpeed="10" />
    <vehicle id="W_E_121" type="standard_car" route="W_E" depart="1713.0" departLane="random" departSpeed="10" />
    <vehicle id="E_S_122" type="standard_car" route="E_S" depart="1722.0" departLane="random" departSpeed="10" />
    <vehicle id="W_N_123" type="standard_car" route="W_N" depart="1742.0" departLane="random" departSpeed="10" />
    <vehicle id="E_N_124" type="standard_car" route="E_N" depart="1744.0" departLane="random" departSpeed="10" />
    <vehicle id="W_E_125" type="standard_car" route="W_E" depart="1770.0" departLane="random" departSpeed="10" />
    <vehicle id="W_E_126" type="standard_car" route="W_E" depart="1777.0" departLane="random" departSpeed="10" />
    <vehicle id="N_S_127" type="standard_car" route="N_S" depart="1796.0" departLane="random" departSpeed="10" />
    <vehicle id="W_E_128" type="standard_car" route="W_E" depart="1817.0" departLane="random" departSpeed="10" />
    <vehicle id="N_S_129" type="standard_car" route="N_S" depart="1835.0" departLane="random" departSpeed="10" />
    <vehicle id="E_S_130" type="standard_car" route="E_S" depart="1841.0" departLane="random" departSpeed="10" />
    <vehicle id="S_W_131" type="standard_car" route="S_W" depart="1853.0" departLane="random" departSpeed="10" />
    <vehicle id="E_W_132" type="standard_car" route="E_W" depart="1886.0" departLane="random" departSpeed="10" />
    <vehicle id="N_S_133" type="standard_car" route="N_S" depart="1902.0" departLane="random" departSpeed="10" />
    <vehicle id="E_W_134" type="standard_car" route="E_W" depart="1923.0" departLane="random" departSpeed="10" />
    <vehicle id="W_E_135" type="standard_car" route="W_E" depart="1938.0" departLane="random" departSpeed="10" />
    <vehicle id="E_W_136" type="standard_car" route="E_W" depart="1946.0" departLane="random" departSpeed="10" />
    <vehicle id="W_N_137" type="standard_car" route="W_N" depart="1968.0" departLane="random" departSpeed="10" />
    <vehicle id="S_W_138" type="standard_car" route="S_W" depart="1980.0" departLane="random" departSpeed="10" />
    <vehicle id="S_W_139" type="standard_car" route="S_W" depart="2004.0" departLane="random" departSpeed="10" />
    <vehicle id="E_W_140" type="standard_car" route="E_W" depart="2009.0" departLane="random" departSpeed="10" />
    <vehicle id="N_S_141" type="standard_car" route="N_S" depart="2027.0" departLane="random" departSpeed="10" />
    <vehicle id="E_W_142" type="standard_car" route="E_W" depart="2033.0" departLane="random" departSpeed="10" />
    <vehicle id="W_E_143" type="standard_car" route="W_E" depart="2039.0" departLane="random" departSpeed="10" />
    <vehicle id="E_W_144" type="standard_car" route="E_W" depart="2039.0" departLane="random" departSpeed="10" />
    <vehicle id="E_W_145" type="standard_car" route="E_W" depart="2041.0" departLane="random" departSpeed="10" />
    <vehicle id="S_N_146" type="standard_car" route="S_N" depart="2064.0" departLane="random" departSpeed="10" />
    <vehicle id="N_S_147" type="standard_car" route="N_S" depart="2067.0" departLane="random" departSpeed="10" />
    <vehicle id="E_W_148" type="standard_car" route="E_W" depart="2135.0" departLane="random" departSpeed="10" />
    <vehicle id="S_W_149" type="standard_car" route="S_W" depart="2137.0" departLane="random" departSpeed="10" />
    <vehicle id="W_S_150" type="standard_car" route="W_S" depart="2161.0" departLane="random" departSpeed="10" />
    <vehicle id="E_W_151" type="standard_car" route="E_W" depart="2174.0" departLane="random" departSpeed="10" />
    <vehicle id="N_E_152" type="standard_car" route="N_E" depart="2178.0" departLane="random" departSpeed="10" />
    <vehicle id="E_S_153" type="standard_car" route="E_S" depart="2178.0" departLane="random" departSpeed="10" />
    <vehicle id="W_E_154" type="standard_car" route="W_E" depart="2193.0" departLane="random" departSpeed="10" />
    <vehicle id="E_S_155" type="standard_car" route="E_S" depart="2220.0" departLane="random" departSpeed="10" />
    <vehicle id="E_N_156" type="standard_car" route="E_N" depart="2230.0" departLane="random" departSpeed="10" />
    <vehicle id="S_W_157" type="standard_car" route="S_W" depart="2257.0" departLane="random" departSpeed="10" />
    <vehicle id="W_S_158" type="standard_car" route="W_S" depart="2275.0" departLane="random" departSpeed="10" />
    <vehicle id="W_E_159" type="standard_car" route="W_E" depart="2292.0" departLane="random" departSpeed="10" />
    <vehicle id="N_S_160" type="standard_car" route="N_S" depart="2294.0" departLane="random" departSpeed="10" />
    <vehicle id="E_W_161" type="standard_car" route="E_W" depart="2295.0" departLane="random" departSpeed="10" />
    <vehicle id="W_S_162" type="standard_car" route="W_S" depart="2306.0" departLane="random" departSpeed="10" />
    <vehicle id="S_N_163" type="standard_car" route="S_N" depart="2309.0" departLane="random" departSpeed="10" />
    <vehicle id="W_E_164" type="standard_car" route="W_E" depart="2311.0" departLane="random" departSpeed="10" />
    <vehicle id="N_E_165" type="standard_car" route="N_E" depart="2342.0" departLane="random" departSpeed="10" />
    <vehicle id="N_S_166" type="standard_car" route="N_S" depart="2363.0" departLane="random" departSpeed="10" />
    <vehicle id="N_W_167" type="standard_car" route="N_W" depart="2380.0" departLane="random" departSpeed="10" />
    <vehicle id="W_S_168" type="standard_car" route="W_S" depart="2386.0" departLane="random" departSpeed="10" />
    <vehicle id="S_E_169" type="standard_car" route="S_E" depart="2396.0" departLane="random" departSpeed="10" />
    <vehicle id="S_N_170" type="standard_car" route="S_N" depart="2412.0" departLane="random" departSpeed="10" />
    <vehicle id="N_S_171" type="standard_car" route="N_S" depart="2439.0" departLane="random" departSpeed="10" />
    <vehicle id="E_W_172" type="standard_car" route="E_W" depart="2455.0" departLane="random" departSpeed="10" />
    <vehicle id="W_E_173" type="standard_car" route="W_E" depart="2482.0" departLane="random" departSpeed="10" />
    <vehicle id="E_W_174" type="standard_car" route="E_W" depart="2507.0" departLane="random" departSpeed="10" />
    <vehicle id="N_W_175" type="standard_car" route="N_W" depart="2515.0" departLane="random" departSpeed="10" />
    <vehicle id="N_S_176" type="standard_car" route="N_S" depart="2573.0" departLane="random" departSpeed="10" />
    <vehicle id="E_W_177" type="standard_car" route="E_W" depart="2585.0" departLane="random" departSpeed="10" />
    <vehicle id="S_N_178" type="standard_car" route="S_N" depart="2592.0" departLane="random" departSpeed="10" />
    <vehicle id="E_W_179" type="standard_car" route="E_W" depart="2624.0" departLane="random" departSpeed="10" />
    <vehicle id="E_W_180" type="standard_car" route="E_W" depart="2650.0" departLane="random" departSpeed="10" />
    <vehicle id="W_N_181" type="standard_car" route="W_N" depart="2692.0" departLane="random" departSpeed="10" />
    <vehicle id="W_S_182" type="standard_car" route="W_S" depart="2721.0" departLane="random" departSpeed="10" />
    <vehicle id="S_N_183" type="standard_car" route="S_N" depart="2733.0" departLane="random" departSpeed="10" />
    <vehicle id="S_W_184" type="standard_car" route="S_W" depart="2739.0" departLane="random" departSpeed="10" />
    <vehicle id="W_E_185" type="standard_car" route="W_E" depart="2989.0" departLane="random" departSpeed="10" />
    <vehicle id="E_N_186" type="standard_car" route="E_N" depart="2991.0" departLane="random" departSpeed="10" />
    <vehicle id="W_N_187" type="standard_car" route="W_N" depart="3131.0" departLane="random" departSpeed="10" />
    <vehicle id="E_W_188" type="standard_car" route="E_W" depart="3150.0" departLane="random" departSpeed="10" />
    <vehicle id="S_N_189" type="standard_car" route="S_N" depart="3153.0" departLane="random" departSpeed="10" />
    <vehicle id="S_W_190" type="standard_car" route="S_W" depart="3280.0" departLane="random" departSpeed="10" />
    <vehicle id="W_S_191" type="standard_car" route="W_S" depart="3296.0" departLane="random" departSpeed="10" />
    <vehicle id="S_N_192" type="standard_car" route="S_N" depart="3334.0" departLane="random" departSpeed="10" />
    <vehicle id="N_S_193" type="standard_car" route="N_S" depart="3339.0" departLane="random" departSpeed="10" />
    <vehicle id="E_N_194" type="standard_car" route="E_N" depart="3375.0" departLane="random" departSpeed="10" />
    <vehicle id="S_N_195" type="standard_car" route="S_N" depart="3401.0" departLane="random" departSpeed="10" />
    <vehicle id="S_N_196" type="standard_car" route="S_N" depart="3419.0" departLane="random" departSpeed="10" />
    <vehicle id="E_W_197" type="standard_car" route="E_W" depart="3638.0" departLane="random" departSpeed="10" />
    <vehicle id="E_N_198" type="standard_car" route="E_N" depart="3736.0" departLane="random" departSpeed="10" />
    <vehicle id="E_W_199" type="standard_car" route="E_W" depart="4053.0" departLane="random" departSpeed="10" />
</routes>
