<routes>
    <!-- Define emergency vehicle type -->
    <vType id="emergency" accel="3.0" decel="6.0" color="1,0,0" maxSpeed="20" sigma="0.5" emergency="true" />
    <!-- Define standard vehicle type -->
    <vType id="standard_car" accel="1.0" decel="4.5" length="5.0" minGap="2.5" maxSpeed="25" sigma="0.5" />
    <route id="W_N1" edges="E13 -E11"/>
    <route id="W_N2" edges="E13 E14 -E16"/>
    <route id="W_E" edges="E13 E14 E15"/>
    <route id="W_S1" edges="E13 E12"/>
    <route id="W_S2" edges="E13 E14 E17"/>
    <route id="N_W1" edges="E11 -E13"/>
    <route id="N_W2" edges="E16 -E14 -E13"/>
    <route id="N_E1" edges="E11 E14 E15"/>
    <route id="N_E2" edges="E16 E15"/>
    <route id="N_S1" edges="-E12 -E11"/>
    <route id="N_S2" edges="-E17 -E16"/>
    <route id="E_W" edges="-E15 -E14 -E13"/>
    <route id="E_N1" edges="-E15 -E14 -E11"/>
    <route id="E_N2" edges="-E15 -E16"/>
    <route id="E_S1" edges="-E15 E17"/>
    <route id="E_S2" edges="-E15 -E14 E12"/>
    <route id="S_N1" edges="-E12 -E11"/>
    <route id="S_N2" edges="-E17 -E16"/>
    <route id="S_E1" edges="-E17 E15"/>
    <route id="S_E2" edges="-E12 E14 E15"/>
    <route id="S_W1" edges="-E12 -E13"/>
    <route id="S_W2" edges="-E17 -E14 -E13"/>
    <vehicle id="veh_0" type="standard_car" route="N_S1" depart="123" departLane="random" departSpeed="10" />
    <vehicle id="veh_1" type="standard_car" route="W_S2" depart="195" departLane="random" departSpeed="10" />
    <vehicle id="veh_2" type="standard_car" route="S_N2" depart="246" departLane="random" departSpeed="10" />
    <vehicle id="veh_3" type="standard_car" route="E_N2" depart="248" departLane="random" departSpeed="10" />
    <vehicle id="veh_4" type="standard_car" route="W_E" depart="251" departLane="random" departSpeed="10" />
    <vehicle id="veh_5" type="standard_car" route="S_N1" depart="257" departLane="random" departSpeed="10" />
    <vehicle id="veh_6" type="standard_car" route="E_N2" depart="257" departLane="random" departSpeed="10" />
    <vehicle id="veh_7" type="standard_car" route="W_E" depart="324" departLane="random" departSpeed="10" />
    <vehicle id="veh_8" type="standard_car" route="W_E" depart="360" departLane="random" departSpeed="10" />
    <vehicle id="veh_9" type="standard_car" route="W_S2" depart="425" departLane="random" departSpeed="10" />
    <vehicle id="veh_10" type="standard_car" route="E_N1" depart="440" departLane="random" departSpeed="10" />
    <vehicle id="veh_11" type="standard_car" route="N_S2" depart="449" departLane="random" departSpeed="10" />
    <vehicle id="veh_12" type="standard_car" route="W_E" depart="463" departLane="random" departSpeed="10" />
    <vehicle id="veh_13" type="standard_car" route="N_E2" depart="482" departLane="random" departSpeed="10" />
    <vehicle id="veh_14" type="standard_car" route="N_S1" depart="489" departLane="random" departSpeed="10" />
    <vehicle id="veh_15" type="standard_car" route="S_N1" depart="543" departLane="random" departSpeed="10" />
    <vehicle id="veh_16" type="standard_car" route="N_S2" depart="565" departLane="random" departSpeed="10" />
    <vehicle id="veh_17" type="standard_car" route="E_W" depart="572" departLane="random" departSpeed="10" />
    <vehicle id="veh_18" type="standard_car" route="S_N1" depart="575" departLane="random" departSpeed="10" />
    <vehicle id="veh_19" type="standard_car" route="S_N1" depart="585" departLane="random" departSpeed="10" />
    <vehicle id="veh_20" type="standard_car" route="N_S1" depart="591" departLane="random" departSpeed="10" />
    <vehicle id="veh_21" type="standard_car" route="W_E" depart="616" departLane="random" departSpeed="10" />
    <vehicle id="veh_22" type="standard_car" route="S_N2" depart="639" departLane="random" departSpeed="10" />
    <vehicle id="veh_23" type="standard_car" route="S_N2" depart="640" departLane="random" departSpeed="10" />
    <vehicle id="veh_24" type="standard_car" route="N_E2" depart="644" departLane="random" departSpeed="10" />
    <vehicle id="veh_25" type="standard_car" route="N_S1" depart="654" departLane="random" departSpeed="10" />
    <vehicle id="veh_26" type="standard_car" route="E_W" depart="669" departLane="random" departSpeed="10" />
    <vehicle id="veh_27" type="standard_car" route="N_S2" depart="677" departLane="random" departSpeed="10" />
    <vehicle id="veh_28" type="standard_car" route="S_N2" depart="687" departLane="random" departSpeed="10" />
    <vehicle id="veh_29" type="standard_car" route="S_N2" depart="694" departLane="random" departSpeed="10" />
    <vehicle id="veh_30" type="standard_car" route="S_N1" depart="708" departLane="random" departSpeed="10" />
    <vehicle id="veh_31" type="standard_car" route="S_N2" depart="724" departLane="random" departSpeed="10" />
    <vehicle id="veh_32" type="standard_car" route="N_S1" depart="749" departLane="random" departSpeed="10" />
    <vehicle id="veh_33" type="standard_car" route="N_S2" depart="755" departLane="random" departSpeed="10" />
    <vehicle id="veh_34" type="standard_car" route="S_N1" depart="758" departLane="random" departSpeed="10" />
    <vehicle id="veh_35" type="standard_car" route="E_W" depart="764" departLane="random" departSpeed="10" />
    <vehicle id="veh_36" type="standard_car" route="S_N1" depart="781" departLane="random" departSpeed="10" />
    <vehicle id="emergency_0" type="emergency" route="W_N1" depart="801" departLane="random" departSpeed="10" />
    <vehicle id="veh_37" type="standard_car" route="W_E" depart="810" departLane="random" departSpeed="10" />
    <vehicle id="veh_38" type="standard_car" route="N_E2" depart="817" departLane="random" departSpeed="10" />
    <vehicle id="veh_39" type="standard_car" route="W_E" depart="842" departLane="random" departSpeed="10" />
    <vehicle id="veh_40" type="standard_car" route="W_E" depart="850" departLane="random" departSpeed="10" />
    <vehicle id="veh_41" type="standard_car" route="E_W" depart="871" departLane="random" departSpeed="10" />
    <vehicle id="veh_42" type="standard_car" route="E_N2" depart="874" departLane="random" departSpeed="10" />
    <vehicle id="veh_43" type="standard_car" route="W_E" depart="875" departLane="random" departSpeed="10" />
    <vehicle id="veh_44" type="standard_car" route="S_N2" depart="904" departLane="random" departSpeed="10" />
    <vehicle id="veh_45" type="standard_car" route="S_N1" depart="906" departLane="random" departSpeed="10" />
    <vehicle id="veh_46" type="standard_car" route="W_N2" depart="914" departLane="random" departSpeed="10" />
    <vehicle id="veh_47" type="standard_car" route="E_W" depart="938" departLane="random" departSpeed="10" />
    <vehicle id="veh_48" type="standard_car" route="N_W2" depart="953" departLane="random" departSpeed="10" />
    <vehicle id="veh_49" type="standard_car" route="N_S2" depart="963" departLane="random" departSpeed="10" />
    <vehicle id="veh_50" type="standard_car" route="W_S2" depart="973" departLane="random" departSpeed="10" />
    <vehicle id="veh_51" type="standard_car" route="N_S2" depart="975" departLane="random" departSpeed="10" />
    <vehicle id="veh_52" type="standard_car" route="N_E2" depart="998" departLane="random" departSpeed="10" />
    <vehicle id="veh_53" type="standard_car" route="E_W" depart="1000" departLane="random" departSpeed="10" />
    <vehicle id="veh_54" type="standard_car" route="N_S2" depart="1010" departLane="random" departSpeed="10" />
    <vehicle id="veh_55" type="standard_car" route="E_W" depart="1038" departLane="random" departSpeed="10" />
    <vehicle id="veh_56" type="standard_car" route="W_E" depart="1052" departLane="random" departSpeed="10" />
    <vehicle id="veh_57" type="standard_car" route="N_S1" depart="1054" departLane="random" departSpeed="10" />
    <vehicle id="veh_58" type="standard_car" route="N_W1" depart="1067" departLane="random" departSpeed="10" />
    <vehicle id="veh_59" type="standard_car" route="W_N1" depart="1069" departLane="random" departSpeed="10" />
    <vehicle id="veh_60" type="standard_car" route="S_N2" depart="1071" departLane="random" departSpeed="10" />
    <vehicle id="veh_61" type="standard_car" route="E_S2" depart="1078" departLane="random" departSpeed="10" />
    <vehicle id="veh_62" type="standard_car" route="S_N1" depart="1101" departLane="random" departSpeed="10" />
    <vehicle id="veh_63" type="standard_car" route="S_N1" depart="1108" departLane="random" departSpeed="10" />
    <vehicle id="veh_64" type="standard_car" route="N_S2" depart="1114" departLane="random" departSpeed="10" />
    <vehicle id="veh_65" type="standard_car" route="N_S1" depart="1115" departLane="random" departSpeed="10" />
    <vehicle id="veh_66" type="standard_car" route="N_S1" depart="1172" departLane="random" departSpeed="10" />
    <vehicle id="veh_67" type="standard_car" route="N_S2" depart="1201" departLane="random" departSpeed="10" />
    <vehicle id="veh_68" type="standard_car" route="N_S1" depart="1202" departLane="random" departSpeed="10" />
    <vehicle id="veh_69" type="standard_car" route="W_E" depart="1210" departLane="random" departSpeed="10" />
    <vehicle id="veh_70" type="standard_car" route="N_S1" depart="1218" departLane="random" departSpeed="10" />
    <vehicle id="veh_71" type="standard_car" route="S_N2" depart="1221" departLane="random" departSpeed="10" />
    <vehicle id="veh_72" type="standard_car" route="N_S1" depart="1252" departLane="random" departSpeed="10" />
    <vehicle id="veh_73" type="standard_car" route="S_N1" depart="1279" departLane="random" departSpeed="10" />
    <vehicle id="veh_74" type="standard_car" route="S_N1" depart="1283" departLane="random" departSpeed="10" />
    <vehicle id="veh_75" type="standard_car" route="W_E" depart="1302" departLane="random" departSpeed="10" />
    <vehicle id="veh_76" type="standard_car" route="E_W" depart="1316" departLane="random" departSpeed="10" />
    <vehicle id="veh_77" type="standard_car" route="E_W" depart="1317" departLane="random" departSpeed="10" />
    <vehicle id="veh_78" type="standard_car" route="W_E" depart="1336" departLane="random" departSpeed="10" />
    <vehicle id="veh_79" type="standard_car" route="N_S2" depart="1337" departLane="random" departSpeed="10" />
    <vehicle id="veh_80" type="standard_car" route="S_N1" depart="1347" departLane="random" departSpeed="10" />
    <vehicle id="veh_81" type="standard_car" route="S_N1" depart="1353" departLane="random" departSpeed="10" />
    <vehicle id="veh_82" type="standard_car" route="W_E" depart="1359" departLane="random" departSpeed="10" />
    <vehicle id="veh_83" type="standard_car" route="E_S2" depart="1362" departLane="random" departSpeed="10" />
    <vehicle id="veh_84" type="standard_car" route="N_S2" depart="1364" departLane="random" departSpeed="10" />
    <vehicle id="veh_85" type="standard_car" route="S_N2" depart="1366" departLane="random" departSpeed="10" />
    <vehicle id="veh_86" type="standard_car" route="E_S2" depart="1368" departLane="random" departSpeed="10" />
    <vehicle id="veh_87" type="standard_car" route="W_E" depart="1386" departLane="random" departSpeed="10" />
    <vehicle id="veh_88" type="standard_car" route="E_N2" depart="1399" departLane="random" departSpeed="10" />
    <vehicle id="veh_89" type="standard_car" route="W_S1" depart="1405" departLane="random" departSpeed="10" />
    <vehicle id="veh_90" type="standard_car" route="W_E" depart="1416" departLane="random" departSpeed="10" />
    <vehicle id="veh_91" type="standard_car" route="W_E" depart="1426" departLane="random" departSpeed="10" />
    <vehicle id="veh_92" type="standard_car" route="W_N2" depart="1431" departLane="random" departSpeed="10" />
    <vehicle id="emergency_1" type="emergency" route="W_N1" depart="1472" departLane="random" departSpeed="10" />
    <vehicle id="veh_93" type="standard_car" route="E_W" depart="1478" departLane="random" departSpeed="10" />
    <vehicle id="veh_94" type="standard_car" route="E_W" depart="1501" departLane="random" departSpeed="10" />
    <vehicle id="veh_95" type="standard_car" route="S_N2" depart="1544" departLane="random" departSpeed="10" />
    <vehicle id="veh_96" type="standard_car" route="N_S2" depart="1546" departLane="random" departSpeed="10" />
    <vehicle id="veh_97" type="standard_car" route="S_N2" depart="1549" departLane="random" departSpeed="10" />
    <vehicle id="veh_98" type="standard_car" route="S_N1" depart="1562" departLane="random" departSpeed="10" />
    <vehicle id="veh_99" type="standard_car" route="S_N1" depart="1576" departLane="random" departSpeed="10" />
    <vehicle id="veh_100" type="standard_car" route="S_N2" depart="1597" departLane="random" departSpeed="10" />
    <vehicle id="veh_101" type="standard_car" route="N_S1" depart="1606" departLane="random" departSpeed="10" />
    <vehicle id="veh_102" type="standard_car" route="N_S1" depart="1646" departLane="random" departSpeed="10" />
    <vehicle id="veh_103" type="standard_car" route="N_E1" depart="1649" departLane="random" departSpeed="10" />
    <vehicle id="veh_104" type="standard_car" route="S_W2" depart="1650" departLane="random" departSpeed="10" />
    <vehicle id="veh_105" type="standard_car" route="N_S2" depart="1652" departLane="random" departSpeed="10" />
    <vehicle id="veh_106" type="standard_car" route="W_E" depart="1654" departLane="random" departSpeed="10" />
    <vehicle id="veh_107" type="standard_car" route="N_S1" depart="1654" departLane="random" departSpeed="10" />
    <vehicle id="veh_108" type="standard_car" route="E_S1" depart="1659" departLane="random" departSpeed="10" />
    <vehicle id="veh_109" type="standard_car" route="N_E2" depart="1663" departLane="random" departSpeed="10" />
    <vehicle id="veh_110" type="standard_car" route="S_N2" depart="1667" departLane="random" departSpeed="10" />
    <vehicle id="veh_111" type="standard_car" route="E_W" depart="1668" departLane="random" departSpeed="10" />
    <vehicle id="veh_112" type="standard_car" route="N_S2" depart="1670" departLane="random" departSpeed="10" />
    <vehicle id="veh_113" type="standard_car" route="S_N1" depart="1679" departLane="random" departSpeed="10" />
    <vehicle id="veh_114" type="standard_car" route="W_S1" depart="1692" departLane="random" departSpeed="10" />
    <vehicle id="veh_115" type="standard_car" route="S_W1" depart="1699" departLane="random" departSpeed="10" />
    <vehicle id="veh_116" type="standard_car" route="S_N1" depart="1702" departLane="random" departSpeed="10" />
    <vehicle id="veh_117" type="standard_car" route="N_S1" depart="1704" departLane="random" departSpeed="10" />
    <vehicle id="veh_118" type="standard_car" route="S_E2" depart="1730" departLane="random" departSpeed="10" />
    <vehicle id="veh_119" type="standard_car" route="S_N1" depart="1734" departLane="random" departSpeed="10" />
    <vehicle id="veh_120" type="standard_car" route="W_E" depart="1738" departLane="random" departSpeed="10" />
    <vehicle id="veh_121" type="standard_car" route="W_S2" depart="1752" departLane="random" departSpeed="10" />
    <vehicle id="veh_122" type="standard_car" route="W_E" depart="1756" departLane="random" departSpeed="10" />
    <vehicle id="veh_123" type="standard_car" route="W_E" depart="1760" departLane="random" departSpeed="10" />
    <vehicle id="veh_124" type="standard_car" route="W_N1" depart="1763" departLane="random" departSpeed="10" />
    <vehicle id="veh_125" type="standard_car" route="W_S1" depart="1765" departLane="random" departSpeed="10" />
    <vehicle id="veh_126" type="standard_car" route="S_N1" depart="1766" departLane="random" departSpeed="10" />
    <vehicle id="veh_127" type="standard_car" route="E_S2" depart="1774" departLane="random" departSpeed="10" />
    <vehicle id="veh_128" type="standard_car" route="S_N1" depart="1819" departLane="random" departSpeed="10" />
    <vehicle id="veh_129" type="standard_car" route="N_S2" depart="1829" departLane="random" departSpeed="10" />
    <vehicle id="veh_130" type="standard_car" route="S_N1" depart="1834" departLane="random" departSpeed="10" />
    <vehicle id="veh_131" type="standard_car" route="S_N2" depart="1850" departLane="random" departSpeed="10" />
    <vehicle id="veh_132" type="standard_car" route="S_N2" depart="1852" departLane="random" departSpeed="10" />
    <vehicle id="veh_133" type="standard_car" route="S_N2" depart="1852" departLane="random" departSpeed="10" />
    <vehicle id="veh_134" type="standard_car" route="S_W2" depart="1860" departLane="random" departSpeed="10" />
    <vehicle id="veh_135" type="standard_car" route="S_N2" depart="1870" departLane="random" departSpeed="10" />
    <vehicle id="veh_136" type="standard_car" route="E_N1" depart="1887" departLane="random" departSpeed="10" />
    <vehicle id="veh_137" type="standard_car" route="N_W2" depart="1889" departLane="random" departSpeed="10" />
    <vehicle id="veh_138" type="standard_car" route="W_E" depart="1897" departLane="random" departSpeed="10" />
    <vehicle id="veh_139" type="standard_car" route="N_E2" depart="1916" departLane="random" departSpeed="10" />
    <vehicle id="veh_140" type="standard_car" route="E_W" depart="1926" departLane="random" departSpeed="10" />
    <vehicle id="veh_141" type="standard_car" route="S_N1" depart="1955" departLane="random" departSpeed="10" />
    <vehicle id="veh_142" type="standard_car" route="E_S2" depart="1955" departLane="random" departSpeed="10" />
    <vehicle id="veh_143" type="standard_car" route="W_E" depart="1968" departLane="random" departSpeed="10" />
    <vehicle id="veh_144" type="standard_car" route="S_N2" depart="1969" departLane="random" departSpeed="10" />
    <vehicle id="veh_145" type="standard_car" route="N_S1" depart="1974" departLane="random" departSpeed="10" />
    <vehicle id="veh_146" type="standard_car" route="W_S1" depart="1986" departLane="random" departSpeed="10" />
    <vehicle id="veh_147" type="standard_car" route="E_W" depart="1987" departLane="random" departSpeed="10" />
    <vehicle id="veh_148" type="standard_car" route="S_W1" depart="2015" departLane="random" departSpeed="10" />
    <vehicle id="veh_149" type="standard_car" route="N_S1" depart="2017" departLane="random" departSpeed="10" />
    <vehicle id="veh_150" type="standard_car" route="N_W2" depart="2020" departLane="random" departSpeed="10" />
    <vehicle id="veh_151" type="standard_car" route="E_N1" depart="2037" departLane="random" departSpeed="10" />
    <vehicle id="veh_152" type="standard_car" route="W_E" depart="2046" departLane="random" departSpeed="10" />
    <vehicle id="veh_153" type="standard_car" route="E_W" depart="2060" departLane="random" departSpeed="10" />
    <vehicle id="veh_154" type="standard_car" route="E_W" depart="2060" departLane="random" departSpeed="10" />
    <vehicle id="veh_155" type="standard_car" route="S_W1" depart="2075" departLane="random" departSpeed="10" />
    <vehicle id="veh_156" type="standard_car" route="N_W2" depart="2087" departLane="random" departSpeed="10" />
    <vehicle id="veh_157" type="standard_car" route="W_N1" depart="2088" departLane="random" departSpeed="10" />
    <vehicle id="veh_158" type="standard_car" route="E_W" depart="2196" departLane="random" departSpeed="10" />
    <vehicle id="veh_159" type="standard_car" route="S_E1" depart="2209" departLane="random" departSpeed="10" />
    <vehicle id="veh_160" type="standard_car" route="W_E" depart="2217" departLane="random" departSpeed="10" />
    <vehicle id="veh_161" type="standard_car" route="N_E2" depart="2255" departLane="random" departSpeed="10" />
    <vehicle id="veh_162" type="standard_car" route="S_W1" depart="2261" departLane="random" departSpeed="10" />
    <vehicle id="veh_163" type="standard_car" route="S_N1" depart="2281" departLane="random" departSpeed="10" />
    <vehicle id="veh_164" type="standard_car" route="W_E" depart="2306" departLane="random" departSpeed="10" />
    <vehicle id="veh_165" type="standard_car" route="E_W" depart="2310" departLane="random" departSpeed="10" />
    <vehicle id="veh_166" type="standard_car" route="N_S2" depart="2334" departLane="random" departSpeed="10" />
    <vehicle id="veh_167" type="standard_car" route="S_N2" depart="2361" departLane="random" departSpeed="10" />
    <vehicle id="veh_168" type="standard_car" route="W_E" depart="2392" departLane="random" departSpeed="10" />
    <vehicle id="veh_169" type="standard_car" route="N_S2" depart="2407" departLane="random" departSpeed="10" />
    <vehicle id="veh_170" type="standard_car" route="N_S1" depart="2428" departLane="random" departSpeed="10" />
    <vehicle id="veh_171" type="standard_car" route="S_E2" depart="2464" departLane="random" departSpeed="10" />
    <vehicle id="veh_172" type="standard_car" route="S_N1" depart="2471" departLane="random" departSpeed="10" />
    <vehicle id="veh_173" type="standard_car" route="S_N1" depart="2505" departLane="random" departSpeed="10" />
    <vehicle id="veh_174" type="standard_car" route="W_S1" depart="2554" departLane="random" departSpeed="10" />
    <vehicle id="veh_175" type="standard_car" route="S_N1" depart="2562" departLane="random" departSpeed="10" />
    <vehicle id="veh_176" type="standard_car" route="E_W" depart="2571" departLane="random" departSpeed="10" />
    <vehicle id="veh_177" type="standard_car" route="S_N1" depart="2627" departLane="random" departSpeed="10" />
    <vehicle id="veh_178" type="standard_car" route="S_N1" depart="2630" departLane="random" departSpeed="10" />
    <vehicle id="veh_179" type="standard_car" route="E_S1" depart="2684" departLane="random" departSpeed="10" />
    <vehicle id="veh_180" type="standard_car" route="E_S1" depart="2685" departLane="random" departSpeed="10" />
    <vehicle id="veh_181" type="standard_car" route="W_N2" depart="2711" departLane="random" departSpeed="10" />
    <vehicle id="veh_182" type="standard_car" route="W_E" depart="2857" departLane="random" departSpeed="10" />
    <vehicle id="veh_183" type="standard_car" route="N_S1" depart="2901" departLane="random" departSpeed="10" />
    <vehicle id="veh_184" type="standard_car" route="N_S1" depart="2920" departLane="random" departSpeed="10" />
    <vehicle id="veh_185" type="standard_car" route="S_N1" depart="2930" departLane="random" departSpeed="10" />
    <vehicle id="emergency_2" type="emergency" route="W_N1" depart="2961" departLane="random" departSpeed="10" />
    <vehicle id="veh_186" type="standard_car" route="W_E" depart="2969" departLane="random" departSpeed="10" />
    <vehicle id="veh_187" type="standard_car" route="E_N1" depart="3054" departLane="random" departSpeed="10" />
    <vehicle id="veh_188" type="standard_car" route="N_S2" depart="3060" departLane="random" departSpeed="10" />
    <vehicle id="veh_189" type="standard_car" route="W_S1" depart="3062" departLane="random" departSpeed="10" />
    <vehicle id="veh_190" type="standard_car" route="W_S2" depart="3145" departLane="random" departSpeed="10" />
    <vehicle id="veh_191" type="standard_car" route="W_E" depart="3182" departLane="random" departSpeed="10" />
    <vehicle id="veh_192" type="standard_car" route="N_E1" depart="3258" departLane="random" departSpeed="10" />
    <vehicle id="veh_193" type="standard_car" route="E_N2" depart="3277" departLane="random" departSpeed="10" />
    <vehicle id="veh_194" type="standard_car" route="N_S1" depart="3467" departLane="random" departSpeed="10" />
    <vehicle id="veh_195" type="standard_car" route="S_N1" depart="3485" departLane="random" departSpeed="10" />
    <vehicle id="veh_196" type="standard_car" route="W_E" depart="3491" departLane="random" departSpeed="10" />
    <vehicle id="veh_197" type="standard_car" route="E_W" depart="3530" departLane="random" departSpeed="10" />
    <vehicle id="veh_198" type="standard_car" route="S_E1" depart="3799" departLane="random" departSpeed="10" />
    <vehicle id="veh_199" type="standard_car" route="E_W" depart="4682" departLane="random" departSpeed="10" />
</routes>
