<routes>
            <vType accel="1.0" decel="4.5" id="standard_car" length="5.0" minGap="2.5" maxSpeed="25" sigma="0.5" />

            <route id="W_N" edges="W2TL TL2N"/>
            <route id="W_E" edges="W2TL TL2E"/>
            <route id="W_S" edges="W2TL TL2S"/>
            <route id="N_W" edges="N2TL TL2W"/>
            <route id="N_E" edges="N2TL TL2E"/>
            <route id="N_S" edges="N2TL TL2S"/>
            <route id="E_W" edges="E2TL TL2W"/>
            <route id="E_N" edges="E2TL TL2N"/>
            <route id="E_S" edges="E2TL TL2S"/>
            <route id="S_W" edges="S2TL TL2W"/>
            <route id="S_N" edges="S2TL TL2N"/>
            <route id="S_E" edges="S2TL TL2E"/>
    <vehicle id="W_E_0" type="standard_car" route="W_E" depart="125.0" departLane="random" departSpeed="10" />
    <vehicle id="E_N_1" type="standard_car" route="E_N" depart="131.0" departLane="random" departSpeed="10" />
    <vehicle id="S_N_2" type="standard_car" route="S_N" depart="197.0" departLane="random" departSpeed="10" />
    <vehicle id="N_S_3" type="standard_car" route="N_S" depart="222.0" departLane="random" departSpeed="10" />
    <vehicle id="N_S_4" type="standard_car" route="N_S" depart="252.0" departLane="random" departSpeed="10" />
    <vehicle id="E_S_5" type="standard_car" route="E_S" depart="265.0" departLane="random" departSpeed="10" />
    <vehicle id="S_N_6" type="standard_car" route="S_N" depart="326.0" departLane="random" departSpeed="10" />
    <vehicle id="N_S_7" type="standard_car" route="N_S" depart="333.0" departLane="random" departSpeed="10" />
    <vehicle id="N_S_8" type="standard_car" route="N_S" depart="422.0" departLane="random" departSpeed="10" />
    <vehicle id="S_E_9" type="standard_car" route="S_E" depart="425.0" departLane="random" departSpeed="10" />
    <vehicle id="E_N_10" type="standard_car" route="E_N" depart="439.0" departLane="random" departSpeed="10" />
    <vehicle id="E_W_11" type="standard_car" route="E_W" depart="469.0" departLane="random" departSpeed="10" />
    <vehicle id="W_S_12" type="standard_car" route="W_S" depart="471.0" departLane="random" departSpeed="10" />
    <vehicle id="N_S_13" type="standard_car" route="N_S" depart="473.0" departLane="random" departSpeed="10" />
    <vehicle id="S_W_14" type="standard_car" route="S_W" depart="475.0" departLane="random" departSpeed="10" />
    <vehicle id="N_S_15" type="standard_car" route="N_S" depart="483.0" departLane="random" departSpeed="10" />
    <vehicle id="W_E_16" type="standard_car" route="W_E" depart="485.0" departLane="random" departSpeed="10" />
    <vehicle id="S_N_17" type="standard_car" route="S_N" depart="508.0" departLane="random" departSpeed="10" />
    <vehicle id="E_W_18" type="standard_car" route="E_W" depart="512.0" departLane="random" departSpeed="10" />
    <vehicle id="E_W_19" type="standard_car" route="E_W" depart="533.0" departLane="random" departSpeed="10" />
    <vehicle id="E_W_20" type="standard_car" route="E_W" depart="551.0" departLane="random" departSpeed="10" />
    <vehicle id="N_E_21" type="standard_car" route="N_E" depart="553.0" departLane="random" departSpeed="10" />
    <vehicle id="W_E_22" type="standard_car" route="W_E" depart="562.0" departLane="random" departSpeed="10" />
    <vehicle id="N_S_23" type="standard_car" route="N_S" depart="574.0" departLane="random" departSpeed="10" />
    <vehicle id="E_W_24" type="standard_car" route="E_W" depart="576.0" departLane="random" departSpeed="10" />
    <vehicle id="E_W_25" type="standard_car" route="E_W" depart="598.0" departLane="random" departSpeed="10" />
    <vehicle id="N_S_26" type="standard_car" route="N_S" depart="632.0" departLane="random" departSpeed="10" />
    <vehicle id="S_N_27" type="standard_car" route="S_N" depart="643.0" departLane="random" departSpeed="10" />
    <vehicle id="E_W_28" type="standard_car" route="E_W" depart="668.0" departLane="random" departSpeed="10" />
    <vehicle id="S_N_29" type="standard_car" route="S_N" depart="679.0" departLane="random" departSpeed="10" />
    <vehicle id="W_N_30" type="standard_car" route="W_N" depart="683.0" departLane="random" departSpeed="10" />
    <vehicle id="N_S_31" type="standard_car" route="N_S" depart="700.0" departLane="random" departSpeed="10" />
    <vehicle id="N_E_32" type="standard_car" route="N_E" depart="736.0" departLane="random" departSpeed="10" />
    <vehicle id="N_S_33" type="standard_car" route="N_S" depart="744.0" departLane="random" departSpeed="10" />
    <vehicle id="N_S_34" type="standard_car" route="N_S" depart="747.0" departLane="random" departSpeed="10" />
    <vehicle id="E_W_35" type="standard_car" route="E_W" depart="749.0" departLane="random" departSpeed="10" />
    <vehicle id="S_N_36" type="standard_car" route="S_N" depart="756.0" departLane="random" departSpeed="10" />
    <vehicle id="W_N_37" type="standard_car" route="W_N" depart="763.0" departLane="random" departSpeed="10" />
    <vehicle id="E_W_38" type="standard_car" route="E_W" depart="768.0" departLane="random" departSpeed="10" />
    <vehicle id="S_N_39" type="standard_car" route="S_N" depart="788.0" departLane="random" departSpeed="10" />
    <vehicle id="S_N_40" type="standard_car" route="S_N" depart="805.0" departLane="random" departSpeed="10" />
    <vehicle id="N_S_41" type="standard_car" route="N_S" depart="815.0" departLane="random" departSpeed="10" />
    <vehicle id="E_W_42" type="standard_car" route="E_W" depart="822.0" departLane="random" departSpeed="10" />
    <vehicle id="W_E_43" type="standard_car" route="W_E" depart="830.0" departLane="random" departSpeed="10" />
    <vehicle id="E_S_44" type="standard_car" route="E_S" depart="848.0" departLane="random" departSpeed="10" />
    <vehicle id="S_N_45" type="standard_car" route="S_N" depart="859.0" departLane="random" departSpeed="10" />
    <vehicle id="N_E_46" type="standard_car" route="N_E" depart="889.0" departLane="random" departSpeed="10" />
    <vehicle id="N_S_47" type="standard_car" route="N_S" depart="898.0" departLane="random" departSpeed="10" />
    <vehicle id="W_E_48" type="standard_car" route="W_E" depart="919.0" departLane="random" departSpeed="10" />
    <vehicle id="S_N_49" type="standard_car" route="S_N" depart="925.0" departLane="random" departSpeed="10" />
    <vehicle id="E_N_50" type="standard_car" route="E_N" depart="928.0" departLane="random" departSpeed="10" />
    <vehicle id="E_W_51" type="standard_car" route="E_W" depart="954.0" departLane="random" departSpeed="10" />
    <vehicle id="W_E_52" type="standard_car" route="W_E" depart="968.0" departLane="random" departSpeed="10" />
    <vehicle id="N_W_53" type="standard_car" route="N_W" depart="985.0" departLane="random" departSpeed="10" />
    <vehicle id="N_S_54" type="standard_car" route="N_S" depart="993.0" departLane="random" departSpeed="10" />
    <vehicle id="N_S_55" type="standard_car" route="N_S" depart="1000.0" departLane="random" departSpeed="10" />
    <vehicle id="W_S_56" type="standard_car" route="W_S" depart="1020.0" departLane="random" departSpeed="10" />
    <vehicle id="N_S_57" type="standard_car" route="N_S" depart="1021.0" departLane="random" departSpeed="10" />
    <vehicle id="E_W_58" type="standard_car" route="E_W" depart="1024.0" departLane="random" departSpeed="10" />
    <vehicle id="E_W_59" type="standard_car" route="E_W" depart="1029.0" departLane="random" departSpeed="10" />
    <vehicle id="N_S_60" type="standard_car" route="N_S" depart="1039.0" departLane="random" departSpeed="10" />
    <vehicle id="E_W_61" type="standard_car" route="E_W" depart="1056.0" departLane="random" departSpeed="10" />
    <vehicle id="S_N_62" type="standard_car" route="S_N" depart="1062.0" departLane="random" departSpeed="10" />
    <vehicle id="S_N_63" type="standard_car" route="S_N" depart="1070.0" departLane="random" departSpeed="10" />
    <vehicle id="N_S_64" type="standard_car" route="N_S" depart="1071.0" departLane="random" departSpeed="10" />
    <vehicle id="E_W_65" type="standard_car" route="E_W" depart="1072.0" departLane="random" departSpeed="10" />
    <vehicle id="E_W_66" type="standard_car" route="E_W" depart="1089.0" departLane="random" departSpeed="10" />
    <vehicle id="N_S_67" type="standard_car" route="N_S" depart="1089.0" departLane="random" departSpeed="10" />
    <vehicle id="N_S_68" type="standard_car" route="N_S" depart="1097.0" departLane="random" departSpeed="10" />
    <vehicle id="S_N_69" type="standard_car" route="S_N" depart="1120.0" departLane="random" departSpeed="10" />
    <vehicle id="S_N_70" type="standard_car" route="S_N" depart="1126.0" departLane="random" departSpeed="10" />
    <vehicle id="S_N_71" type="standard_car" route="S_N" depart="1139.0" departLane="random" departSpeed="10" />
    <vehicle id="S_N_72" type="standard_car" route="S_N" depart="1146.0" departLane="random" departSpeed="10" />
    <vehicle id="N_S_73" type="standard_car" route="N_S" depart="1150.0" departLane="random" departSpeed="10" />
    <vehicle id="N_S_74" type="standard_car" route="N_S" depart="1155.0" departLane="random" departSpeed="10" />
    <vehicle id="W_E_75" type="standard_car" route="W_E" depart="1160.0" departLane="random" departSpeed="10" />
    <vehicle id="N_S_76" type="standard_car" route="N_S" depart="1168.0" departLane="random" departSpeed="10" />
    <vehicle id="W_N_77" type="standard_car" route="W_N" depart="1169.0" departLane="random" departSpeed="10" />
    <vehicle id="E_W_78" type="standard_car" route="E_W" depart="1174.0" departLane="random" departSpeed="10" />
    <vehicle id="S_N_79" type="standard_car" route="S_N" depart="1193.0" departLane="random" departSpeed="10" />
    <vehicle id="S_N_80" type="standard_car" route="S_N" depart="1204.0" departLane="random" departSpeed="10" />
    <vehicle id="W_E_81" type="standard_car" route="W_E" depart="1216.0" departLane="random" departSpeed="10" />
    <vehicle id="N_S_82" type="standard_car" route="N_S" depart="1240.0" departLane="random" departSpeed="10" />
    <vehicle id="W_E_83" type="standard_car" route="W_E" depart="1242.0" departLane="random" departSpeed="10" />
    <vehicle id="S_N_84" type="standard_car" route="S_N" depart="1249.0" departLane="random" departSpeed="10" />
    <vehicle id="N_S_85" type="standard_car" route="N_S" depart="1254.0" departLane="random" departSpeed="10" />
    <vehicle id="E_S_86" type="standard_car" route="E_S" depart="1265.0" departLane="random" departSpeed="10" />
    <vehicle id="E_W_87" type="standard_car" route="E_W" depart="1274.0" departLane="random" departSpeed="10" />
    <vehicle id="W_E_88" type="standard_car" route="W_E" depart="1292.0" departLane="random" departSpeed="10" />
    <vehicle id="S_N_89" type="standard_car" route="S_N" depart="1348.0" departLane="random" departSpeed="10" />
    <vehicle id="S_N_90" type="standard_car" route="S_N" depart="1360.0" departLane="random" departSpeed="10" />
    <vehicle id="E_W_91" type="standard_car" route="E_W" depart="1374.0" departLane="random" departSpeed="10" />
    <vehicle id="S_N_92" type="standard_car" route="S_N" depart="1375.0" departLane="random" departSpeed="10" />
    <vehicle id="N_S_93" type="standard_car" route="N_S" depart="1378.0" departLane="random" departSpeed="10" />
    <vehicle id="W_E_94" type="standard_car" route="W_E" depart="1382.0" departLane="random" departSpeed="10" />
    <vehicle id="N_S_95" type="standard_car" route="N_S" depart="1383.0" departLane="random" departSpeed="10" />
    <vehicle id="E_W_96" type="standard_car" route="E_W" depart="1398.0" departLane="random" departSpeed="10" />
    <vehicle id="S_N_97" type="standard_car" route="S_N" depart="1411.0" departLane="random" departSpeed="10" />
    <vehicle id="E_S_98" type="standard_car" route="E_S" depart="1422.0" departLane="random" departSpeed="10" />
    <vehicle id="W_E_99" type="standard_car" route="W_E" depart="1452.0" departLane="random" departSpeed="10" />
    <vehicle id="N_E_100" type="standard_car" route="N_E" depart="1543.0" departLane="random" departSpeed="10" />
    <vehicle id="E_W_101" type="standard_car" route="E_W" depart="1545.0" departLane="random" departSpeed="10" />
    <vehicle id="N_E_102" type="standard_car" route="N_E" depart="1550.0" departLane="random" departSpeed="10" />
    <vehicle id="W_N_103" type="standard_car" route="W_N" depart="1556.0" departLane="random" departSpeed="10" />
    <vehicle id="N_S_104" type="standard_car" route="N_S" depart="1560.0" departLane="random" departSpeed="10" />
    <vehicle id="E_W_105" type="standard_car" route="E_W" depart="1565.0" departLane="random" departSpeed="10" />
    <vehicle id="N_S_106" type="standard_car" route="N_S" depart="1582.0" departLane="random" departSpeed="10" />
    <vehicle id="N_E_107" type="standard_car" route="N_E" depart="1588.0" departLane="random" departSpeed="10" />
    <vehicle id="S_N_108" type="standard_car" route="S_N" depart="1596.0" departLane="random" departSpeed="10" />
    <vehicle id="S_N_109" type="standard_car" route="S_N" depart="1626.0" departLane="random" departSpeed="10" />
    <vehicle id="W_E_110" type="standard_car" route="W_E" depart="1646.0" departLane="random" departSpeed="10" />
    <vehicle id="S_E_111" type="standard_car" route="S_E" depart="1677.0" departLane="random" departSpeed="10" />
    <vehicle id="E_W_112" type="standard_car" route="E_W" depart="1679.0" departLane="random" departSpeed="10" />
    <vehicle id="E_N_113" type="standard_car" route="E_N" depart="1681.0" departLane="random" departSpeed="10" />
    <vehicle id="W_E_114" type="standard_car" route="W_E" depart="1687.0" departLane="random" departSpeed="10" />
    <vehicle id="E_W_115" type="standard_car" route="E_W" depart="1695.0" departLane="random" departSpeed="10" />
    <vehicle id="W_E_116" type="standard_car" route="W_E" depart="1707.0" departLane="random" departSpeed="10" />
    <vehicle id="W_N_117" type="standard_car" route="W_N" depart="1716.0" departLane="random" departSpeed="10" />
    <vehicle id="N_S_118" type="standard_car" route="N_S" depart="1745.0" departLane="random" departSpeed="10" />
    <vehicle id="N_S_119" type="standard_car" route="N_S" depart="1757.0" departLane="random" departSpeed="10" />
    <vehicle id="N_S_120" type="standard_car" route="N_S" depart="1759.0" departLane="random" departSpeed="10" />
    <vehicle id="E_W_121" type="standard_car" route="E_W" depart="1762.0" departLane="random" departSpeed="10" />
    <vehicle id="E_W_122" type="standard_car" route="E_W" depart="1763.0" departLane="random" departSpeed="10" />
    <vehicle id="W_N_123" type="standard_car" route="W_N" depart="1780.0" departLane="random" departSpeed="10" />
    <vehicle id="S_N_124" type="standard_car" route="S_N" depart="1807.0" departLane="random" departSpeed="10" />
    <vehicle id="S_N_125" type="standard_car" route="S_N" depart="1817.0" departLane="random" departSpeed="10" />
    <vehicle id="N_S_126" type="standard_car" route="N_S" depart="1820.0" departLane="random" departSpeed="10" />
    <vehicle id="E_W_127" type="standard_car" route="E_W" depart="1831.0" departLane="random" departSpeed="10" />
    <vehicle id="N_S_128" type="standard_car" route="N_S" depart="1877.0" departLane="random" departSpeed="10" />
    <vehicle id="W_E_129" type="standard_car" route="W_E" depart="1879.0" departLane="random" departSpeed="10" />
    <vehicle id="S_N_130" type="standard_car" route="S_N" depart="1898.0" departLane="random" departSpeed="10" />
    <vehicle id="S_W_131" type="standard_car" route="S_W" depart="1902.0" departLane="random" departSpeed="10" />
    <vehicle id="W_E_132" type="standard_car" route="W_E" depart="1913.0" departLane="random" departSpeed="10" />
    <vehicle id="E_W_133" type="standard_car" route="E_W" depart="1932.0" departLane="random" departSpeed="10" />
    <vehicle id="W_E_134" type="standard_car" route="W_E" depart="1953.0" departLane="random" departSpeed="10" />
    <vehicle id="W_E_135" type="standard_car" route="W_E" depart="2033.0" departLane="random" departSpeed="10" />
    <vehicle id="W_E_136" type="standard_car" route="W_E" depart="2033.0" departLane="random" departSpeed="10" />
    <vehicle id="E_W_137" type="standard_car" route="E_W" depart="2035.0" departLane="random" departSpeed="10" />
    <vehicle id="W_E_138" type="standard_car" route="W_E" depart="2043.0" departLane="random" departSpeed="10" />
    <vehicle id="S_N_139" type="standard_car" route="S_N" depart="2052.0" departLane="random" departSpeed="10" />
    <vehicle id="N_W_140" type="standard_car" route="N_W" depart="2064.0" departLane="random" departSpeed="10" />
    <vehicle id="E_S_141" type="standard_car" route="E_S" depart="2118.0" departLane="random" departSpeed="10" />
    <vehicle id="E_W_142" type="standard_car" route="E_W" depart="2127.0" departLane="random" departSpeed="10" />
    <vehicle id="W_E_143" type="standard_car" route="W_E" depart="2131.0" departLane="random" departSpeed="10" />
    <vehicle id="W_E_144" type="standard_car" route="W_E" depart="2135.0" departLane="random" departSpeed="10" />
    <vehicle id="N_S_145" type="standard_car" route="N_S" depart="2137.0" departLane="random" departSpeed="10" />
    <vehicle id="W_N_146" type="standard_car" route="W_N" depart="2162.0" departLane="random" departSpeed="10" />
    <vehicle id="E_W_147" type="standard_car" route="E_W" depart="2175.0" departLane="random" departSpeed="10" />
    <vehicle id="E_W_148" type="standard_car" route="E_W" depart="2184.0" departLane="random" departSpeed="10" />
    <vehicle id="N_W_149" type="standard_car" route="N_W" depart="2190.0" departLane="random" departSpeed="10" />
    <vehicle id="E_W_150" type="standard_car" route="E_W" depart="2208.0" departLane="random" departSpeed="10" />
    <vehicle id="W_E_151" type="standard_car" route="W_E" depart="2211.0" departLane="random" departSpeed="10" />
    <vehicle id="S_N_152" type="standard_car" route="S_N" depart="2237.0" departLane="random" departSpeed="10" />
    <vehicle id="N_W_153" type="standard_car" route="N_W" depart="2272.0" departLane="random" departSpeed="10" />
    <vehicle id="W_E_154" type="standard_car" route="W_E" depart="2288.0" departLane="random" departSpeed="10" />
    <vehicle id="S_N_155" type="standard_car" route="S_N" depart="2292.0" departLane="random" departSpeed="10" />
    <vehicle id="W_E_156" type="standard_car" route="W_E" depart="2307.0" departLane="random" departSpeed="10" />
    <vehicle id="N_S_157" type="standard_car" route="N_S" depart="2310.0" departLane="random" departSpeed="10" />
    <vehicle id="N_S_158" type="standard_car" route="N_S" depart="2314.0" departLane="random" departSpeed="10" />
    <vehicle id="E_S_159" type="standard_car" route="E_S" depart="2336.0" departLane="random" departSpeed="10" />
    <vehicle id="W_E_160" type="standard_car" route="W_E" depart="2343.0" departLane="random" departSpeed="10" />
    <vehicle id="N_S_161" type="standard_car" route="N_S" depart="2354.0" departLane="random" departSpeed="10" />
    <vehicle id="E_W_162" type="standard_car" route="E_W" depart="2357.0" departLane="random" departSpeed="10" />
    <vehicle id="N_S_163" type="standard_car" route="N_S" depart="2362.0" departLane="random" departSpeed="10" />
    <vehicle id="S_N_164" type="standard_car" route="S_N" depart="2373.0" departLane="random" departSpeed="10" />
    <vehicle id="E_N_165" type="standard_car" route="E_N" depart="2376.0" departLane="random" departSpeed="10" />
    <vehicle id="E_W_166" type="standard_car" route="E_W" depart="2392.0" departLane="random" departSpeed="10" />
    <vehicle id="E_W_167" type="standard_car" route="E_W" depart="2406.0" departLane="random" departSpeed="10" />
    <vehicle id="W_E_168" type="standard_car" route="W_E" depart="2411.0" departLane="random" departSpeed="10" />
    <vehicle id="E_N_169" type="standard_car" route="E_N" depart="2513.0" departLane="random" departSpeed="10" />
    <vehicle id="N_S_170" type="standard_car" route="N_S" depart="2580.0" departLane="random" departSpeed="10" />
    <vehicle id="N_S_171" type="standard_car" route="N_S" depart="2643.0" departLane="random" departSpeed="10" />
    <vehicle id="S_N_172" type="standard_car" route="S_N" depart="2694.0" departLane="random" departSpeed="10" />
    <vehicle id="W_E_173" type="standard_car" route="W_E" depart="2711.0" departLane="random" departSpeed="10" />
    <vehicle id="E_W_174" type="standard_car" route="E_W" depart="2720.0" departLane="random" departSpeed="10" />
    <vehicle id="S_N_175" type="standard_car" route="S_N" depart="2741.0" departLane="random" departSpeed="10" />
    <vehicle id="N_W_176" type="standard_car" route="N_W" depart="2746.0" departLane="random" departSpeed="10" />
    <vehicle id="S_N_177" type="standard_car" route="S_N" depart="2781.0" departLane="random" departSpeed="10" />
    <vehicle id="S_N_178" type="standard_car" route="S_N" depart="2790.0" departLane="random" departSpeed="10" />
    <vehicle id="W_E_179" type="standard_car" route="W_E" depart="2898.0" departLane="random" departSpeed="10" />
    <vehicle id="S_N_180" type="standard_car" route="S_N" depart="2922.0" departLane="random" departSpeed="10" />
    <vehicle id="E_W_181" type="standard_car" route="E_W" depart="2932.0" departLane="random" departSpeed="10" />
    <vehicle id="W_E_182" type="standard_car" route="W_E" depart="2993.0" departLane="random" departSpeed="10" />
    <vehicle id="E_N_183" type="standard_car" route="E_N" depart="2995.0" departLane="random" departSpeed="10" />
    <vehicle id="N_S_184" type="standard_car" route="N_S" depart="3101.0" departLane="random" departSpeed="10" />
    <vehicle id="N_S_185" type="standard_car" route="N_S" depart="3141.0" departLane="random" departSpeed="10" />
    <vehicle id="W_E_186" type="standard_car" route="W_E" depart="3184.0" departLane="random" departSpeed="10" />
    <vehicle id="W_E_187" type="standard_car" route="W_E" depart="3219.0" departLane="random" departSpeed="10" />
    <vehicle id="S_E_188" type="standard_car" route="S_E" depart="3280.0" departLane="random" departSpeed="10" />
    <vehicle id="E_N_189" type="standard_car" route="E_N" depart="3328.0" departLane="random" departSpeed="10" />
    <vehicle id="W_N_190" type="standard_car" route="W_N" depart="3413.0" departLane="random" departSpeed="10" />
    <vehicle id="E_W_191" type="standard_car" route="E_W" depart="3547.0" departLane="random" departSpeed="10" />
    <vehicle id="W_E_192" type="standard_car" route="W_E" depart="3674.0" departLane="random" departSpeed="10" />
    <vehicle id="N_S_193" type="standard_car" route="N_S" depart="3712.0" departLane="random" departSpeed="10" />
    <vehicle id="W_E_194" type="standard_car" route="W_E" depart="3797.0" departLane="random" departSpeed="10" />
    <vehicle id="N_S_195" type="standard_car" route="N_S" depart="3812.0" departLane="random" departSpeed="10" />
    <vehicle id="N_S_196" type="standard_car" route="N_S" depart="3829.0" departLane="random" departSpeed="10" />
    <vehicle id="N_S_197" type="standard_car" route="N_S" depart="3948.0" departLane="random" departSpeed="10" />
    <vehicle id="S_N_198" type="standard_car" route="S_N" depart="4024.0" departLane="random" departSpeed="10" />
    <vehicle id="S_W_199" type="standard_car" route="S_W" depart="4396.0" departLane="random" departSpeed="10" />
</routes>
