<routes>
    <vType id="emergency" accel="3.0" decel="6.0" color="1,0,0" maxSpeed="20" sigma="0.5" emergency="true"/>
    <vType id="standard_car" accel="1.0" decel="4.5" length="5.0" minGap="2.5" maxSpeed="25" sigma="0.5"/>
    
    <route id="left_to_right" edges="left_to_center center_to_right"/>
    <route id="right_to_left" edges="right_to_center center_to_left"/>
    <route id="down_to_left" edges="down_to_center center_to_left"/>
    <route id="down_to_right" edges="down_to_center center_to_right"/>
    
    <route id="left_uturn" edges="left_to_center center_to_left"/>
    <route id="right_uturn" edges="right_to_center center_to_right"/>
    <route id="down_uturn" edges="down_to_center center_to_down"/>
    <vehicle id="right_to_left_0" type="standard_car" route="right_to_left" depart="49" departLane="random" departSpeed="10" />
    <vehicle id="right_uturn_1" type="standard_car" route="right_uturn" depart="64" departLane="random" departSpeed="10" />
    <vehicle id="down_to_left_2" type="standard_car" route="down_to_left" depart="65" departLane="random" departSpeed="10" />
    <vehicle id="left_uturn_3" type="standard_car" route="left_uturn" depart="69" departLane="random" departSpeed="10" />
    <vehicle id="left_to_right_4" type="standard_car" route="left_to_right" depart="84" departLane="random" departSpeed="10" />
    <vehicle id="down_to_right_5" type="standard_car" route="down_to_right" depart="86" departLane="random" departSpeed="10" />
    <vehicle id="down_uturn_6" type="standard_car" route="down_uturn" depart="97" departLane="random" departSpeed="10" />
    <vehicle id="right_to_left_7" type="standard_car" route="right_to_left" depart="98" departLane="random" departSpeed="10" />
    <vehicle id="down_to_right_8" type="standard_car" route="down_to_right" depart="101" departLane="random" departSpeed="10" />
    <vehicle id="right_to_left_9" type="standard_car" route="right_to_left" depart="111" departLane="random" departSpeed="10" />
    <vehicle id="left_to_right_10" type="standard_car" route="left_to_right" depart="115" departLane="random" departSpeed="10" />
    <vehicle id="right_to_left_11" type="standard_car" route="right_to_left" depart="120" departLane="random" departSpeed="10" />
    <vehicle id="down_to_right_12" type="standard_car" route="down_to_right" depart="132" departLane="random" departSpeed="10" />
    <vehicle id="right_uturn_13" type="standard_car" route="right_uturn" depart="133" departLane="random" departSpeed="10" />
    <vehicle id="right_to_left_14" type="standard_car" route="right_to_left" depart="143" departLane="random" departSpeed="10" />
    <vehicle id="right_to_left_15" type="standard_car" route="right_to_left" depart="145" departLane="random" departSpeed="10" />
    <vehicle id="down_uturn_16" type="standard_car" route="down_uturn" depart="145" departLane="random" departSpeed="10" />
    <vehicle id="left_to_right_17" type="standard_car" route="left_to_right" depart="145" departLane="random" departSpeed="10" />
    <vehicle id="right_to_left_18" type="standard_car" route="right_to_left" depart="149" departLane="random" departSpeed="10" />
    <vehicle id="left_uturn_19" type="standard_car" route="left_uturn" depart="150" departLane="random" departSpeed="10" />
    <vehicle id="down_to_right_20" type="standard_car" route="down_to_right" depart="152" departLane="random" departSpeed="10" />
    <vehicle id="down_to_right_21" type="standard_car" route="down_to_right" depart="155" departLane="random" departSpeed="10" />
    <vehicle id="left_to_right_22" type="standard_car" route="left_to_right" depart="165" departLane="random" departSpeed="10" />
    <vehicle id="down_to_left_23" type="standard_car" route="down_to_left" depart="170" departLane="random" departSpeed="10" />
    <vehicle id="right_uturn_24" type="standard_car" route="right_uturn" depart="175" departLane="random" departSpeed="10" />
    <vehicle id="down_to_right_25" type="standard_car" route="down_to_right" depart="175" departLane="random" departSpeed="10" />
    <vehicle id="left_to_right_26" type="standard_car" route="left_to_right" depart="175" departLane="random" departSpeed="10" />
    <vehicle id="right_uturn_27" type="standard_car" route="right_uturn" depart="183" departLane="random" departSpeed="10" />
    <vehicle id="right_to_left_28" type="standard_car" route="right_to_left" depart="184" departLane="random" departSpeed="10" />
    <vehicle id="down_uturn_29" type="standard_car" route="down_uturn" depart="185" departLane="random" departSpeed="10" />
    <vehicle id="right_to_left_30" type="standard_car" route="right_to_left" depart="185" departLane="random" departSpeed="10" />
    <vehicle id="left_to_right_31" type="standard_car" route="left_to_right" depart="187" departLane="random" departSpeed="10" />
    <vehicle id="left_to_right_32" type="standard_car" route="left_to_right" depart="192" departLane="random" departSpeed="10" />
    <vehicle id="down_to_left_33" type="standard_car" route="down_to_left" depart="192" departLane="random" departSpeed="10" />
    <vehicle id="down_to_left_34" type="standard_car" route="down_to_left" depart="193" departLane="random" departSpeed="10" />
    <vehicle id="down_to_left_35" type="standard_car" route="down_to_left" depart="199" departLane="random" departSpeed="10" />
    <vehicle id="right_to_left_36" type="standard_car" route="right_to_left" depart="207" departLane="random" departSpeed="10" />
    <vehicle id="left_uturn_37" type="standard_car" route="left_uturn" depart="207" departLane="random" departSpeed="10" />
    <vehicle id="right_to_left_38" type="standard_car" route="right_to_left" depart="208" departLane="random" departSpeed="10" />
    <vehicle id="down_to_right_39" type="standard_car" route="down_to_right" depart="211" departLane="random" departSpeed="10" />
    <vehicle id="down_uturn_40" type="standard_car" route="down_uturn" depart="211" departLane="random" departSpeed="10" />
    <vehicle id="down_to_left_41" type="standard_car" route="down_to_left" depart="212" departLane="random" departSpeed="10" />
    <vehicle id="right_to_left_42" type="standard_car" route="right_to_left" depart="213" departLane="random" departSpeed="10" />
    <vehicle id="down_to_left_43" type="standard_car" route="down_to_left" depart="215" departLane="random" departSpeed="10" />
    <vehicle id="right_uturn_44" type="standard_car" route="right_uturn" depart="219" departLane="random" departSpeed="10" />
    <vehicle id="down_uturn_45" type="standard_car" route="down_uturn" depart="220" departLane="random" departSpeed="10" />
    <vehicle id="left_uturn_46" type="standard_car" route="left_uturn" depart="225" departLane="random" departSpeed="10" />
    <vehicle id="down_to_right_47" type="standard_car" route="down_to_right" depart="225" departLane="random" departSpeed="10" />
    <vehicle id="right_uturn_48" type="standard_car" route="right_uturn" depart="226" departLane="random" departSpeed="10" />
    <vehicle id="right_to_left_49" type="standard_car" route="right_to_left" depart="229" departLane="random" departSpeed="10" />
    <vehicle id="left_to_right_50" type="standard_car" route="left_to_right" depart="230" departLane="random" departSpeed="10" />
    <vehicle id="right_to_left_51" type="standard_car" route="right_to_left" depart="231" departLane="random" departSpeed="10" />
    <vehicle id="left_uturn_52" type="standard_car" route="left_uturn" depart="234" departLane="random" departSpeed="10" />
    <vehicle id="left_to_right_53" type="standard_car" route="left_to_right" depart="238" departLane="random" departSpeed="10" />
    <vehicle id="right_uturn_54" type="standard_car" route="right_uturn" depart="243" departLane="random" departSpeed="10" />
    <vehicle id="down_to_left_55" type="standard_car" route="down_to_left" depart="244" departLane="random" departSpeed="10" />
    <vehicle id="left_uturn_56" type="standard_car" route="left_uturn" depart="248" departLane="random" departSpeed="10" />
    <vehicle id="down_uturn_57" type="standard_car" route="down_uturn" depart="249" departLane="random" departSpeed="10" />
    <vehicle id="right_uturn_58" type="standard_car" route="right_uturn" depart="250" departLane="random" departSpeed="10" />
    <vehicle id="right_uturn_59" type="standard_car" route="right_uturn" depart="250" departLane="random" departSpeed="10" />
    <vehicle id="left_to_right_60" type="standard_car" route="left_to_right" depart="250" departLane="random" departSpeed="10" />
    <vehicle id="left_to_right_61" type="standard_car" route="left_to_right" depart="256" departLane="random" departSpeed="10" />
    <vehicle id="left_to_right_62" type="standard_car" route="left_to_right" depart="256" departLane="random" departSpeed="10" />
    <vehicle id="left_to_right_63" type="standard_car" route="left_to_right" depart="261" departLane="random" departSpeed="10" />
    <vehicle id="right_to_left_64" type="standard_car" route="right_to_left" depart="262" departLane="random" departSpeed="10" />
    <vehicle id="down_to_right_65" type="standard_car" route="down_to_right" depart="263" departLane="random" departSpeed="10" />
    <vehicle id="left_to_right_66" type="standard_car" route="left_to_right" depart="263" departLane="random" departSpeed="10" />
    <vehicle id="down_to_right_67" type="standard_car" route="down_to_right" depart="264" departLane="random" departSpeed="10" />
    <vehicle id="down_to_right_68" type="standard_car" route="down_to_right" depart="266" departLane="random" departSpeed="10" />
    <vehicle id="down_to_right_69" type="standard_car" route="down_to_right" depart="267" departLane="random" departSpeed="10" />
    <vehicle id="left_to_right_70" type="standard_car" route="left_to_right" depart="272" departLane="random" departSpeed="10" />
    <vehicle id="right_to_left_71" type="standard_car" route="right_to_left" depart="275" departLane="random" departSpeed="10" />
    <vehicle id="right_uturn_72" type="standard_car" route="right_uturn" depart="275" departLane="random" departSpeed="10" />
    <vehicle id="down_to_right_73" type="standard_car" route="down_to_right" depart="275" departLane="random" departSpeed="10" />
    <vehicle id="right_to_left_74" type="standard_car" route="right_to_left" depart="280" departLane="random" departSpeed="10" />
    <vehicle id="down_to_right_75" type="standard_car" route="down_to_right" depart="282" departLane="random" departSpeed="10" />
    <vehicle id="left_to_right_76" type="standard_car" route="left_to_right" depart="287" departLane="random" departSpeed="10" />
    <vehicle id="down_uturn_77" type="standard_car" route="down_uturn" depart="288" departLane="random" departSpeed="10" />
    <vehicle id="left_uturn_78" type="standard_car" route="left_uturn" depart="289" departLane="random" departSpeed="10" />
    <vehicle id="left_to_right_79" type="standard_car" route="left_to_right" depart="290" departLane="random" departSpeed="10" />
    <vehicle id="down_to_left_80" type="standard_car" route="down_to_left" depart="292" departLane="random" departSpeed="10" />
    <vehicle id="left_to_right_81" type="standard_car" route="left_to_right" depart="292" departLane="random" departSpeed="10" />
    <vehicle id="right_to_left_82" type="standard_car" route="right_to_left" depart="294" departLane="random" departSpeed="10" />
    <vehicle id="down_to_right_83" type="standard_car" route="down_to_right" depart="296" departLane="random" departSpeed="10" />
    <vehicle id="down_to_left_84" type="standard_car" route="down_to_left" depart="298" departLane="random" departSpeed="10" />
    <vehicle id="down_to_right_85" type="standard_car" route="down_to_right" depart="298" departLane="random" departSpeed="10" />
    <vehicle id="left_to_right_86" type="standard_car" route="left_to_right" depart="299" departLane="random" departSpeed="10" />
    <vehicle id="left_to_right_87" type="standard_car" route="left_to_right" depart="299" departLane="random" departSpeed="10" />
    <vehicle id="down_uturn_88" type="standard_car" route="down_uturn" depart="300" departLane="random" departSpeed="10" />
    <vehicle id="down_to_left_89" type="standard_car" route="down_to_left" depart="302" departLane="random" departSpeed="10" />
    <vehicle id="right_to_left_90" type="standard_car" route="right_to_left" depart="302" departLane="random" departSpeed="10" />
    <vehicle id="down_to_left_91" type="standard_car" route="down_to_left" depart="308" departLane="random" departSpeed="10" />
    <vehicle id="right_uturn_92" type="standard_car" route="right_uturn" depart="309" departLane="random" departSpeed="10" />
    <vehicle id="down_to_right_93" type="standard_car" route="down_to_right" depart="309" departLane="random" departSpeed="10" />
    <vehicle id="down_to_left_94" type="standard_car" route="down_to_left" depart="310" departLane="random" departSpeed="10" />
    <vehicle id="down_uturn_95" type="standard_car" route="down_uturn" depart="310" departLane="random" departSpeed="10" />
    <vehicle id="right_to_left_96" type="standard_car" route="right_to_left" depart="313" departLane="random" departSpeed="10" />
    <vehicle id="down_to_right_97" type="standard_car" route="down_to_right" depart="316" departLane="random" departSpeed="10" />
    <vehicle id="left_to_right_98" type="standard_car" route="left_to_right" depart="316" departLane="random" departSpeed="10" />
    <vehicle id="right_to_left_99" type="standard_car" route="right_to_left" depart="316" departLane="random" departSpeed="10" />
    <vehicle id="down_to_right_100" type="standard_car" route="down_to_right" depart="318" departLane="random" departSpeed="10" />
    <vehicle id="left_uturn_101" type="standard_car" route="left_uturn" depart="318" departLane="random" departSpeed="10" />
    <vehicle id="left_to_right_102" type="standard_car" route="left_to_right" depart="320" departLane="random" departSpeed="10" />
    <vehicle id="left_uturn_103" type="standard_car" route="left_uturn" depart="320" departLane="random" departSpeed="10" />
    <vehicle id="left_to_right_104" type="standard_car" route="left_to_right" depart="322" departLane="random" departSpeed="10" />
    <vehicle id="left_to_right_105" type="standard_car" route="left_to_right" depart="325" departLane="random" departSpeed="10" />
    <vehicle id="right_uturn_106" type="standard_car" route="right_uturn" depart="325" departLane="random" departSpeed="10" />
    <vehicle id="left_uturn_107" type="standard_car" route="left_uturn" depart="326" departLane="random" departSpeed="10" />
    <vehicle id="down_to_right_108" type="standard_car" route="down_to_right" depart="329" departLane="random" departSpeed="10" />
    <vehicle id="down_uturn_109" type="standard_car" route="down_uturn" depart="331" departLane="random" departSpeed="10" />
    <vehicle id="right_to_left_110" type="standard_car" route="right_to_left" depart="333" departLane="random" departSpeed="10" />
    <vehicle id="left_to_right_111" type="standard_car" route="left_to_right" depart="334" departLane="random" departSpeed="10" />
    <vehicle id="left_to_right_112" type="standard_car" route="left_to_right" depart="338" departLane="random" departSpeed="10" />
    <vehicle id="down_to_right_113" type="standard_car" route="down_to_right" depart="339" departLane="random" departSpeed="10" />
    <vehicle id="left_uturn_114" type="standard_car" route="left_uturn" depart="339" departLane="random" departSpeed="10" />
    <vehicle id="left_to_right_115" type="standard_car" route="left_to_right" depart="341" departLane="random" departSpeed="10" />
    <vehicle id="left_to_right_116" type="standard_car" route="left_to_right" depart="342" departLane="random" departSpeed="10" />
    <vehicle id="right_to_left_117" type="standard_car" route="right_to_left" depart="343" departLane="random" departSpeed="10" />
    <vehicle id="right_to_left_118" type="standard_car" route="right_to_left" depart="344" departLane="random" departSpeed="10" />
    <vehicle id="down_uturn_119" type="standard_car" route="down_uturn" depart="344" departLane="random" departSpeed="10" />
    <vehicle id="down_uturn_120" type="standard_car" route="down_uturn" depart="347" departLane="random" departSpeed="10" />
    <vehicle id="right_to_left_121" type="standard_car" route="right_to_left" depart="347" departLane="random" departSpeed="10" />
    <vehicle id="down_to_right_122" type="standard_car" route="down_to_right" depart="348" departLane="random" departSpeed="10" />
    <vehicle id="down_to_right_123" type="standard_car" route="down_to_right" depart="350" departLane="random" departSpeed="10" />
    <vehicle id="down_to_right_124" type="standard_car" route="down_to_right" depart="350" departLane="random" departSpeed="10" />
    <vehicle id="right_to_left_125" type="standard_car" route="right_to_left" depart="351" departLane="random" departSpeed="10" />
    <vehicle id="left_to_right_126" type="standard_car" route="left_to_right" depart="356" departLane="random" departSpeed="10" />
    <vehicle id="down_uturn_127" type="standard_car" route="down_uturn" depart="357" departLane="random" departSpeed="10" />
    <vehicle id="down_to_right_128" type="standard_car" route="down_to_right" depart="357" departLane="random" departSpeed="10" />
    <vehicle id="left_to_right_129" type="standard_car" route="left_to_right" depart="358" departLane="random" departSpeed="10" />
    <vehicle id="right_to_left_130" type="standard_car" route="right_to_left" depart="359" departLane="random" departSpeed="10" />
    <vehicle id="left_uturn_131" type="standard_car" route="left_uturn" depart="360" departLane="random" departSpeed="10" />
    <vehicle id="left_uturn_132" type="standard_car" route="left_uturn" depart="361" departLane="random" departSpeed="10" />
    <vehicle id="down_to_left_133" type="standard_car" route="down_to_left" depart="361" departLane="random" departSpeed="10" />
    <vehicle id="down_to_right_134" type="standard_car" route="down_to_right" depart="362" departLane="random" departSpeed="10" />
    <vehicle id="down_to_right_135" type="standard_car" route="down_to_right" depart="363" departLane="random" departSpeed="10" />
    <vehicle id="left_to_right_136" type="standard_car" route="left_to_right" depart="364" departLane="random" departSpeed="10" />
    <vehicle id="down_to_right_137" type="standard_car" route="down_to_right" depart="365" departLane="random" departSpeed="10" />
    <vehicle id="down_to_left_138" type="standard_car" route="down_to_left" depart="365" departLane="random" departSpeed="10" />
    <vehicle id="down_to_right_139" type="standard_car" route="down_to_right" depart="365" departLane="random" departSpeed="10" />
    <vehicle id="right_to_left_140" type="standard_car" route="right_to_left" depart="366" departLane="random" departSpeed="10" />
    <vehicle id="down_to_right_141" type="standard_car" route="down_to_right" depart="366" departLane="random" departSpeed="10" />
    <vehicle id="right_to_left_142" type="standard_car" route="right_to_left" depart="369" departLane="random" departSpeed="10" />
    <vehicle id="down_to_right_143" type="standard_car" route="down_to_right" depart="372" departLane="random" departSpeed="10" />
    <vehicle id="left_to_right_144" type="standard_car" route="left_to_right" depart="374" departLane="random" departSpeed="10" />
    <vehicle id="down_to_right_145" type="standard_car" route="down_to_right" depart="374" departLane="random" departSpeed="10" />
    <vehicle id="left_to_right_146" type="standard_car" route="left_to_right" depart="375" departLane="random" departSpeed="10" />
    <vehicle id="right_to_left_147" type="standard_car" route="right_to_left" depart="376" departLane="random" departSpeed="10" />
    <vehicle id="left_to_right_148" type="standard_car" route="left_to_right" depart="376" departLane="random" departSpeed="10" />
    <vehicle id="down_to_right_149" type="standard_car" route="down_to_right" depart="381" departLane="random" departSpeed="10" />
    <vehicle id="right_uturn_150" type="standard_car" route="right_uturn" depart="383" departLane="random" departSpeed="10" />
    <vehicle id="left_to_right_151" type="standard_car" route="left_to_right" depart="384" departLane="random" departSpeed="10" />
    <vehicle id="right_to_left_152" type="standard_car" route="right_to_left" depart="385" departLane="random" departSpeed="10" />
    <vehicle id="right_to_left_153" type="standard_car" route="right_to_left" depart="385" departLane="random" departSpeed="10" />
    <vehicle id="down_to_left_154" type="standard_car" route="down_to_left" depart="389" departLane="random" departSpeed="10" />
    <vehicle id="down_to_right_155" type="standard_car" route="down_to_right" depart="391" departLane="random" departSpeed="10" />
    <vehicle id="down_uturn_156" type="standard_car" route="down_uturn" depart="393" departLane="random" departSpeed="10" />
    <vehicle id="down_to_right_157" type="standard_car" route="down_to_right" depart="394" departLane="random" departSpeed="10" />
    <vehicle id="left_uturn_158" type="standard_car" route="left_uturn" depart="395" departLane="random" departSpeed="10" />
    <vehicle id="down_to_right_159" type="standard_car" route="down_to_right" depart="395" departLane="random" departSpeed="10" />
    <vehicle id="right_uturn_160" type="standard_car" route="right_uturn" depart="395" departLane="random" departSpeed="10" />
    <vehicle id="right_to_left_161" type="standard_car" route="right_to_left" depart="395" departLane="random" departSpeed="10" />
    <vehicle id="left_uturn_162" type="standard_car" route="left_uturn" depart="396" departLane="random" departSpeed="10" />
    <vehicle id="right_to_left_163" type="standard_car" route="right_to_left" depart="398" departLane="random" departSpeed="10" />
    <vehicle id="down_to_right_164" type="standard_car" route="down_to_right" depart="399" departLane="random" departSpeed="10" />
    <vehicle id="left_uturn_165" type="standard_car" route="left_uturn" depart="400" departLane="random" departSpeed="10" />
    <vehicle id="down_uturn_166" type="standard_car" route="down_uturn" depart="405" departLane="random" departSpeed="10" />
    <vehicle id="left_to_right_167" type="standard_car" route="left_to_right" depart="406" departLane="random" departSpeed="10" />
    <vehicle id="down_uturn_168" type="standard_car" route="down_uturn" depart="406" departLane="random" departSpeed="10" />
    <vehicle id="down_to_left_169" type="standard_car" route="down_to_left" depart="406" departLane="random" departSpeed="10" />
    <vehicle id="down_to_left_170" type="standard_car" route="down_to_left" depart="407" departLane="random" departSpeed="10" />
    <vehicle id="down_to_left_171" type="standard_car" route="down_to_left" depart="407" departLane="random" departSpeed="10" />
    <vehicle id="down_uturn_172" type="standard_car" route="down_uturn" depart="407" departLane="random" departSpeed="10" />
    <vehicle id="down_to_right_173" type="standard_car" route="down_to_right" depart="409" departLane="random" departSpeed="10" />
    <vehicle id="down_to_left_174" type="standard_car" route="down_to_left" depart="409" departLane="random" departSpeed="10" />
    <vehicle id="left_to_right_175" type="standard_car" route="left_to_right" depart="409" departLane="random" departSpeed="10" />
    <vehicle id="down_uturn_176" type="standard_car" route="down_uturn" depart="410" departLane="random" departSpeed="10" />
    <vehicle id="left_to_right_177" type="standard_car" route="left_to_right" depart="411" departLane="random" departSpeed="10" />
    <vehicle id="left_to_right_178" type="standard_car" route="left_to_right" depart="411" departLane="random" departSpeed="10" />
    <vehicle id="down_to_left_179" type="standard_car" route="down_to_left" depart="413" departLane="random" departSpeed="10" />
    <vehicle id="down_to_left_180" type="standard_car" route="down_to_left" depart="413" departLane="random" departSpeed="10" />
    <vehicle id="right_to_left_181" type="standard_car" route="right_to_left" depart="414" departLane="random" departSpeed="10" />
    <vehicle id="right_to_left_182" type="standard_car" route="right_to_left" depart="414" departLane="random" departSpeed="10" />
    <vehicle id="right_to_left_183" type="standard_car" route="right_to_left" depart="417" departLane="random" departSpeed="10" />
    <vehicle id="down_to_right_184" type="standard_car" route="down_to_right" depart="418" departLane="random" departSpeed="10" />
    <vehicle id="left_to_right_185" type="standard_car" route="left_to_right" depart="419" departLane="random" departSpeed="10" />
    <vehicle id="down_to_right_186" type="standard_car" route="down_to_right" depart="420" departLane="random" departSpeed="10" />
    <vehicle id="down_to_right_187" type="standard_car" route="down_to_right" depart="421" departLane="random" departSpeed="10" />
    <vehicle id="right_to_left_188" type="standard_car" route="right_to_left" depart="421" departLane="random" departSpeed="10" />
    <vehicle id="down_to_left_189" type="standard_car" route="down_to_left" depart="427" departLane="random" departSpeed="10" />
    <vehicle id="down_to_left_190" type="standard_car" route="down_to_left" depart="427" departLane="random" departSpeed="10" />
    <vehicle id="right_uturn_191" type="standard_car" route="right_uturn" depart="429" departLane="random" departSpeed="10" />
    <vehicle id="down_uturn_192" type="standard_car" route="down_uturn" depart="432" departLane="random" departSpeed="10" />
    <vehicle id="left_to_right_193" type="standard_car" route="left_to_right" depart="436" departLane="random" departSpeed="10" />
    <vehicle id="down_to_right_194" type="standard_car" route="down_to_right" depart="437" departLane="random" departSpeed="10" />
    <vehicle id="down_to_right_195" type="standard_car" route="down_to_right" depart="437" departLane="random" departSpeed="10" />
    <vehicle id="right_uturn_196" type="standard_car" route="right_uturn" depart="439" departLane="random" departSpeed="10" />
    <vehicle id="down_to_left_197" type="standard_car" route="down_to_left" depart="439" departLane="random" departSpeed="10" />
    <vehicle id="right_to_left_198" type="standard_car" route="right_to_left" depart="441" departLane="random" departSpeed="10" />
    <vehicle id="right_uturn_199" type="standard_car" route="right_uturn" depart="442" departLane="random" departSpeed="10" />
    <vehicle id="left_to_right_200" type="standard_car" route="left_to_right" depart="442" departLane="random" departSpeed="10" />
    <vehicle id="down_to_left_201" type="standard_car" route="down_to_left" depart="444" departLane="random" departSpeed="10" />
    <vehicle id="down_uturn_202" type="standard_car" route="down_uturn" depart="445" departLane="random" departSpeed="10" />
    <vehicle id="down_to_right_203" type="standard_car" route="down_to_right" depart="445" departLane="random" departSpeed="10" />
    <vehicle id="left_uturn_204" type="standard_car" route="left_uturn" depart="446" departLane="random" departSpeed="10" />
    <vehicle id="down_uturn_205" type="standard_car" route="down_uturn" depart="447" departLane="random" departSpeed="10" />
    <vehicle id="right_uturn_206" type="standard_car" route="right_uturn" depart="447" departLane="random" departSpeed="10" />
    <vehicle id="down_to_left_207" type="standard_car" route="down_to_left" depart="449" departLane="random" departSpeed="10" />
    <vehicle id="down_to_right_208" type="standard_car" route="down_to_right" depart="450" departLane="random" departSpeed="10" />
    <vehicle id="down_uturn_209" type="standard_car" route="down_uturn" depart="450" departLane="random" departSpeed="10" />
    <vehicle id="down_uturn_210" type="standard_car" route="down_uturn" depart="451" departLane="random" departSpeed="10" />
    <vehicle id="left_uturn_211" type="standard_car" route="left_uturn" depart="451" departLane="random" departSpeed="10" />
    <vehicle id="down_to_left_212" type="standard_car" route="down_to_left" depart="456" departLane="random" departSpeed="10" />
    <vehicle id="down_uturn_213" type="standard_car" route="down_uturn" depart="456" departLane="random" departSpeed="10" />
    <vehicle id="down_uturn_214" type="standard_car" route="down_uturn" depart="458" departLane="random" departSpeed="10" />
    <vehicle id="right_uturn_215" type="standard_car" route="right_uturn" depart="459" departLane="random" departSpeed="10" />
    <vehicle id="down_uturn_216" type="standard_car" route="down_uturn" depart="460" departLane="random" departSpeed="10" />
    <vehicle id="right_to_left_217" type="standard_car" route="right_to_left" depart="460" departLane="random" departSpeed="10" />
    <vehicle id="left_uturn_218" type="standard_car" route="left_uturn" depart="461" departLane="random" departSpeed="10" />
    <vehicle id="down_uturn_219" type="standard_car" route="down_uturn" depart="462" departLane="random" departSpeed="10" />
    <vehicle id="left_to_right_220" type="standard_car" route="left_to_right" depart="462" departLane="random" departSpeed="10" />
    <vehicle id="right_to_left_221" type="standard_car" route="right_to_left" depart="463" departLane="random" departSpeed="10" />
    <vehicle id="down_to_right_222" type="standard_car" route="down_to_right" depart="464" departLane="random" departSpeed="10" />
    <vehicle id="right_uturn_223" type="standard_car" route="right_uturn" depart="467" departLane="random" departSpeed="10" />
    <vehicle id="right_to_left_224" type="standard_car" route="right_to_left" depart="467" departLane="random" departSpeed="10" />
    <vehicle id="right_to_left_225" type="standard_car" route="right_to_left" depart="472" departLane="random" departSpeed="10" />
    <vehicle id="down_to_right_226" type="standard_car" route="down_to_right" depart="473" departLane="random" departSpeed="10" />