<routes>
    <vType id="emergency" accel="3.0" decel="6.0" color="1,0,0" maxSpeed="20" sigma="0.5" emergency="true"/>
    <vType id="standard_car" accel="1.0" decel="4.5" length="5.0" minGap="2.5" maxSpeed="25" sigma="0.5"/>

    <route id="left_to_right" edges="left_to_center center_to_right"/>
    <route id="right_to_left" edges="right_to_center center_to_left"/>
    <route id="down_to_left" edges="down_to_center center_to_left"/>
    <route id="down_to_right" edges="down_to_center center_to_right"/>

    <route id="left_uturn" edges="left_to_center center_to_left"/>
    <route id="right_uturn" edges="right_to_center center_to_right"/>
    <route id="down_uturn" edges="down_to_center center_to_down"/>
    <vehicle id="left_uturn_0" type="standard_car" route="left_uturn" depart="15" departLane="random" departSpeed="10" />
    <vehicle id="down_uturn_1" type="standard_car" route="down_uturn" depart="22" departLane="random" departSpeed="10" />
    <vehicle id="right_uturn_2" type="standard_car" route="right_uturn" depart="50" departLane="random" departSpeed="10" />
    <vehicle id="left_to_right_3" type="standard_car" route="left_to_right" depart="56" departLane="random" departSpeed="10" />
    <vehicle id="right_to_left_4" type="standard_car" route="right_to_left" depart="77" departLane="random" departSpeed="10" />
    <vehicle id="down_to_right_5" type="standard_car" route="down_to_right" depart="86" departLane="random" departSpeed="10" />
    <vehicle id="down_to_left_6" type="standard_car" route="down_to_left" depart="107" departLane="random" departSpeed="10" />
    <vehicle id="left_uturn_7" type="standard_car" route="left_uturn" depart="113" departLane="random" departSpeed="10" />
    <vehicle id="down_uturn_8" type="standard_car" route="down_uturn" depart="116" departLane="random" departSpeed="10" />
    <vehicle id="left_uturn_9" type="standard_car" route="left_uturn" depart="119" departLane="random" departSpeed="10" />
    <vehicle id="left_to_right_10" type="standard_car" route="left_to_right" depart="127" departLane="random" departSpeed="10" />
    <vehicle id="right_to_left_11" type="standard_car" route="right_to_left" depart="139" departLane="random" departSpeed="10" />
    <vehicle id="down_to_left_12" type="standard_car" route="down_to_left" depart="140" departLane="random" departSpeed="10" />
    <vehicle id="down_uturn_13" type="standard_car" route="down_uturn" depart="147" departLane="random" departSpeed="10" />
    <vehicle id="right_to_left_14" type="standard_car" route="right_to_left" depart="147" departLane="random" departSpeed="10" />
    <vehicle id="right_to_left_15" type="standard_car" route="right_to_left" depart="152" departLane="random" departSpeed="10" />
    <vehicle id="right_uturn_16" type="standard_car" route="right_uturn" depart="158" departLane="random" departSpeed="10" />
    <vehicle id="right_to_left_17" type="standard_car" route="right_to_left" depart="161" departLane="random" departSpeed="10" />
    <vehicle id="left_to_right_18" type="standard_car" route="left_to_right" depart="162" departLane="random" departSpeed="10" />
    <vehicle id="left_uturn_19" type="standard_car" route="left_uturn" depart="166" departLane="random" departSpeed="10" />
    <vehicle id="down_to_right_20" type="standard_car" route="down_to_right" depart="174" departLane="random" departSpeed="10" />
    <vehicle id="down_to_left_21" type="standard_car" route="down_to_left" depart="179" departLane="random" departSpeed="10" />
    <vehicle id="down_to_left_22" type="standard_car" route="down_to_left" depart="179" departLane="random" departSpeed="10" />
    <vehicle id="right_to_left_23" type="standard_car" route="right_to_left" depart="184" departLane="random" departSpeed="10" />
    <vehicle id="left_uturn_24" type="standard_car" route="left_uturn" depart="185" departLane="random" departSpeed="10" />
    <vehicle id="right_uturn_25" type="standard_car" route="right_uturn" depart="186" departLane="random" departSpeed="10" />
    <vehicle id="down_uturn_26" type="standard_car" route="down_uturn" depart="186" departLane="random" departSpeed="10" />
    <vehicle id="down_to_left_27" type="standard_car" route="down_to_left" depart="192" departLane="random" departSpeed="10" />
    <vehicle id="down_to_left_28" type="standard_car" route="down_to_left" depart="196" departLane="random" departSpeed="10" />
    <vehicle id="right_uturn_29" type="standard_car" route="right_uturn" depart="200" departLane="random" departSpeed="10" />
    <vehicle id="right_to_left_30" type="standard_car" route="right_to_left" depart="207" departLane="random" departSpeed="10" />
    <vehicle id="down_uturn_31" type="standard_car" route="down_uturn" depart="212" departLane="random" departSpeed="10" />
    <vehicle id="right_to_left_32" type="standard_car" route="right_to_left" depart="212" departLane="random" departSpeed="10" />
    <vehicle id="down_uturn_33" type="standard_car" route="down_uturn" depart="212" departLane="random" departSpeed="10" />
    <vehicle id="left_to_right_34" type="standard_car" route="left_to_right" depart="217" departLane="random" departSpeed="10" />
    <vehicle id="left_to_right_35" type="standard_car" route="left_to_right" depart="224" departLane="random" departSpeed="10" />
    <vehicle id="down_uturn_36" type="standard_car" route="down_uturn" depart="226" departLane="random" departSpeed="10" />
    <vehicle id="down_to_left_37" type="standard_car" route="down_to_left" depart="226" departLane="random" departSpeed="10" />
    <vehicle id="right_to_left_38" type="standard_car" route="right_to_left" depart="244" departLane="random" departSpeed="10" />
    <vehicle id="right_to_left_39" type="standard_car" route="right_to_left" depart="245" departLane="random" departSpeed="10" />
    <vehicle id="down_uturn_40" type="standard_car" route="down_uturn" depart="247" departLane="random" departSpeed="10" />
    <vehicle id="down_to_left_41" type="standard_car" route="down_to_left" depart="249" departLane="random" departSpeed="10" />
    <vehicle id="down_to_right_42" type="standard_car" route="down_to_right" depart="251" departLane="random" departSpeed="10" />
    <vehicle id="left_uturn_43" type="standard_car" route="left_uturn" depart="251" departLane="random" departSpeed="10" />
    <vehicle id="down_to_right_44" type="standard_car" route="down_to_right" depart="261" departLane="random" departSpeed="10" />
    <vehicle id="down_to_left_45" type="standard_car" route="down_to_left" depart="261" departLane="random" departSpeed="10" />
    <vehicle id="right_to_left_46" type="standard_car" route="right_to_left" depart="265" departLane="random" departSpeed="10" />
    <vehicle id="down_to_left_47" type="standard_car" route="down_to_left" depart="266" departLane="random" departSpeed="10" />
    <vehicle id="down_to_left_48" type="standard_car" route="down_to_left" depart="270" departLane="random" departSpeed="10" />
    <vehicle id="left_uturn_49" type="standard_car" route="left_uturn" depart="271" departLane="random" departSpeed="10" />
    <vehicle id="down_to_left_50" type="standard_car" route="down_to_left" depart="273" departLane="random" departSpeed="10" />
    <vehicle id="down_to_left_51" type="standard_car" route="down_to_left" depart="273" departLane="random" departSpeed="10" />
    <vehicle id="left_uturn_52" type="standard_car" route="left_uturn" depart="274" departLane="random" departSpeed="10" />
    <vehicle id="left_uturn_53" type="standard_car" route="left_uturn" depart="274" departLane="random" departSpeed="10" />
    <vehicle id="down_to_left_54" type="standard_car" route="down_to_left" depart="277" departLane="random" departSpeed="10" />
    <vehicle id="down_to_right_55" type="standard_car" route="down_to_right" depart="279" departLane="random" departSpeed="10" />
    <vehicle id="down_to_right_56" type="standard_car" route="down_to_right" depart="280" departLane="random" departSpeed="10" />
    <vehicle id="right_to_left_57" type="standard_car" route="right_to_left" depart="283" departLane="random" departSpeed="10" />
    <vehicle id="left_to_right_58" type="standard_car" route="left_to_right" depart="285" departLane="random" departSpeed="10" />
    <vehicle id="left_to_right_59" type="standard_car" route="left_to_right" depart="285" departLane="random" departSpeed="10" />
    <vehicle id="left_to_right_60" type="standard_car" route="left_to_right" depart="285" departLane="random" departSpeed="10" />
    <vehicle id="left_to_right_61" type="standard_car" route="left_to_right" depart="285" departLane="random" departSpeed="10" />
    <vehicle id="left_uturn_62" type="standard_car" route="left_uturn" depart="286" departLane="random" departSpeed="10" />
    <vehicle id="right_to_left_63" type="standard_car" route="right_to_left" depart="291" departLane="random" departSpeed="10" />
    <vehicle id="down_to_right_64" type="standard_car" route="down_to_right" depart="294" departLane="random" departSpeed="10" />
    <vehicle id="right_uturn_65" type="standard_car" route="right_uturn" depart="310" departLane="random" departSpeed="10" />
    <vehicle id="right_to_left_66" type="standard_car" route="right_to_left" depart="312" departLane="random" departSpeed="10" />
    <vehicle id="down_to_left_67" type="standard_car" route="down_to_left" depart="312" departLane="random" departSpeed="10" />
    <vehicle id="right_uturn_68" type="standard_car" route="right_uturn" depart="318" departLane="random" departSpeed="10" />
    <vehicle id="left_uturn_69" type="standard_car" route="left_uturn" depart="318" departLane="random" departSpeed="10" />
    <vehicle id="right_to_left_70" type="standard_car" route="right_to_left" depart="322" departLane="random" departSpeed="10" />
    <vehicle id="down_to_right_71" type="standard_car" route="down_to_right" depart="323" departLane="random" departSpeed="10" />
    <vehicle id="left_uturn_72" type="standard_car" route="left_uturn" depart="323" departLane="random" departSpeed="10" />
    <vehicle id="right_uturn_73" type="standard_car" route="right_uturn" depart="334" departLane="random" departSpeed="10" />
    <vehicle id="right_to_left_74" type="standard_car" route="right_to_left" depart="336" departLane="random" departSpeed="10" />
    <vehicle id="down_to_left_75" type="standard_car" route="down_to_left" depart="340" departLane="random" departSpeed="10" />
    <vehicle id="left_to_right_76" type="standard_car" route="left_to_right" depart="340" departLane="random" departSpeed="10" />
    <vehicle id="down_to_left_77" type="standard_car" route="down_to_left" depart="344" departLane="random" departSpeed="10" />
    <vehicle id="down_uturn_78" type="standard_car" route="down_uturn" depart="344" departLane="random" departSpeed="10" />
    <vehicle id="left_uturn_79" type="standard_car" route="left_uturn" depart="344" departLane="random" departSpeed="10" />
    <vehicle id="down_uturn_80" type="standard_car" route="down_uturn" depart="350" departLane="random" departSpeed="10" />
    <vehicle id="right_uturn_81" type="standard_car" route="right_uturn" depart="354" departLane="random" departSpeed="10" />
    <vehicle id="left_to_right_82" type="standard_car" route="left_to_right" depart="356" departLane="random" departSpeed="10" />
    <vehicle id="left_to_right_83" type="standard_car" route="left_to_right" depart="359" departLane="random" departSpeed="10" />
    <vehicle id="down_to_right_84" type="standard_car" route="down_to_right" depart="360" departLane="random" departSpeed="10" />
    <vehicle id="down_to_left_85" type="standard_car" route="down_to_left" depart="360" departLane="random" departSpeed="10" />
    <vehicle id="down_to_right_86" type="standard_car" route="down_to_right" depart="365" departLane="random" departSpeed="10" />
    <vehicle id="down_to_left_87" type="standard_car" route="down_to_left" depart="370" departLane="random" departSpeed="10" />
    <vehicle id="left_to_right_88" type="standard_car" route="left_to_right" depart="378" departLane="random" departSpeed="10" />
    <vehicle id="down_uturn_89" type="standard_car" route="down_uturn" depart="380" departLane="random" departSpeed="10" />
    <vehicle id="down_to_left_90" type="standard_car" route="down_to_left" depart="380" departLane="random" departSpeed="10" />
    <vehicle id="right_uturn_91" type="standard_car" route="right_uturn" depart="380" departLane="random" departSpeed="10" />
    <vehicle id="right_to_left_92" type="standard_car" route="right_to_left" depart="383" departLane="random" departSpeed="10" />
    <vehicle id="down_to_right_93" type="standard_car" route="down_to_right" depart="385" departLane="random" departSpeed="10" />
    <vehicle id="right_to_left_94" type="standard_car" route="right_to_left" depart="386" departLane="random" departSpeed="10" />
    <vehicle id="down_to_right_95" type="standard_car" route="down_to_right" depart="387" departLane="random" departSpeed="10" />
    <vehicle id="left_uturn_96" type="standard_car" route="left_uturn" depart="389" departLane="random" departSpeed="10" />
    <vehicle id="down_uturn_97" type="standard_car" route="down_uturn" depart="391" departLane="random" departSpeed="10" />
    <vehicle id="down_uturn_98" type="standard_car" route="down_uturn" depart="405" departLane="random" departSpeed="10" />
    <vehicle id="down_to_right_99" type="standard_car" route="down_to_right" depart="407" departLane="random" departSpeed="10" />
    <vehicle id="down_to_left_100" type="standard_car" route="down_to_left" depart="407" departLane="random" departSpeed="10" />
    <vehicle id="down_uturn_101" type="standard_car" route="down_uturn" depart="410" departLane="random" departSpeed="10" />
    <vehicle id="down_uturn_102" type="standard_car" route="down_uturn" depart="413" departLane="random" departSpeed="10" />
    <vehicle id="down_to_left_103" type="standard_car" route="down_to_left" depart="417" departLane="random" departSpeed="10" />
    <vehicle id="down_to_left_104" type="standard_car" route="down_to_left" depart="417" departLane="random" departSpeed="10" />
    <vehicle id="down_to_right_105" type="standard_car" route="down_to_right" depart="417" departLane="random" departSpeed="10" />
    <vehicle id="left_uturn_106" type="standard_car" route="left_uturn" depart="418" departLane="random" departSpeed="10" />
    <vehicle id="left_to_right_107" type="standard_car" route="left_to_right" depart="419" departLane="random" departSpeed="10" />
    <vehicle id="down_to_left_108" type="standard_car" route="down_to_left" depart="422" departLane="random" departSpeed="10" />
    <vehicle id="left_uturn_109" type="standard_car" route="left_uturn" depart="424" departLane="random" departSpeed="10" />
    <vehicle id="down_to_right_110" type="standard_car" route="down_to_right" depart="425" departLane="random" departSpeed="10" />
    <vehicle id="down_to_left_111" type="standard_car" route="down_to_left" depart="429" departLane="random" departSpeed="10" />
    <vehicle id="down_to_right_112" type="standard_car" route="down_to_right" depart="429" departLane="random" departSpeed="10" />
    <vehicle id="left_uturn_113" type="standard_car" route="left_uturn" depart="431" departLane="random" departSpeed="10" />
    <vehicle id="left_to_right_114" type="standard_car" route="left_to_right" depart="432" departLane="random" departSpeed="10" />
    <vehicle id="down_uturn_115" type="standard_car" route="down_uturn" depart="433" departLane="random" departSpeed="10" />
    <vehicle id="down_to_left_116" type="standard_car" route="down_to_left" depart="436" departLane="random" departSpeed="10" />
    <vehicle id="down_to_right_117" type="standard_car" route="down_to_right" depart="437" departLane="random" departSpeed="10" />
    <vehicle id="down_to_left_118" type="standard_car" route="down_to_left" depart="438" departLane="random" departSpeed="10" />
    <vehicle id="down_uturn_119" type="standard_car" route="down_uturn" depart="439" departLane="random" departSpeed="10" />
    <vehicle id="down_uturn_120" type="standard_car" route="down_uturn" depart="439" departLane="random" departSpeed="10" />
    <vehicle id="down_to_left_121" type="standard_car" route="down_to_left" depart="440" departLane="random" departSpeed="10" />
    <vehicle id="down_uturn_122" type="standard_car" route="down_uturn" depart="441" departLane="random" departSpeed="10" />
    <vehicle id="right_to_left_123" type="standard_car" route="right_to_left" depart="443" departLane="random" departSpeed="10" />
    <vehicle id="down_to_right_124" type="standard_car" route="down_to_right" depart="445" departLane="random" departSpeed="10" />
    <vehicle id="down_uturn_125" type="standard_car" route="down_uturn" depart="449" departLane="random" departSpeed="10" />
    <vehicle id="right_to_left_126" type="standard_car" route="right_to_left" depart="452" departLane="random" departSpeed="10" />
    <vehicle id="left_uturn_127" type="standard_car" route="left_uturn" depart="453" departLane="random" departSpeed="10" />
    <vehicle id="down_to_right_128" type="standard_car" route="down_to_right" depart="454" departLane="random" departSpeed="10" />
    <vehicle id="down_to_left_129" type="standard_car" route="down_to_left" depart="456" departLane="random" departSpeed="10" />
    <vehicle id="left_to_right_130" type="standard_car" route="left_to_right" depart="458" departLane="random" departSpeed="10" />
    <vehicle id="down_to_right_131" type="standard_car" route="down_to_right" depart="466" departLane="random" departSpeed="10" />
    <vehicle id="down_uturn_132" type="standard_car" route="down_uturn" depart="469" departLane="random" departSpeed="10" />
    <vehicle id="down_to_left_133" type="standard_car" route="down_to_left" depart="469" departLane="random" departSpeed="10" />
    <vehicle id="down_to_left_134" type="standard_car" route="down_to_left" depart="474" departLane="random" departSpeed="10" />
    <vehicle id="down_to_left_135" type="standard_car" route="down_to_left" depart="475" departLane="random" departSpeed="10" />
    <vehicle id="down_to_right_136" type="standard_car" route="down_to_right" depart="477" departLane="random" departSpeed="10" />
    <vehicle id="down_to_left_137" type="standard_car" route="down_to_left" depart="480" departLane="random" departSpeed="10" />
    <vehicle id="down_to_left_138" type="standard_car" route="down_to_left" depart="481" departLane="random" departSpeed="10" />
    <vehicle id="left_uturn_139" type="standard_car" route="left_uturn" depart="483" departLane="random" departSpeed="10" />
    <vehicle id="down_to_left_140" type="standard_car" route="down_to_left" depart="487" departLane="random" departSpeed="10" />
    <vehicle id="left_to_right_141" type="standard_car" route="left_to_right" depart="488" departLane="random" departSpeed="10" />
    <vehicle id="left_to_right_142" type="standard_car" route="left_to_right" depart="488" departLane="random" departSpeed="10" />
    <vehicle id="down_to_left_143" type="standard_car" route="down_to_left" depart="489" departLane="random" departSpeed="10" />
    <vehicle id="right_uturn_144" type="standard_car" route="right_uturn" depart="493" departLane="random" departSpeed="10" />
    <vehicle id="left_to_right_145" type="standard_car" route="left_to_right" depart="502" departLane="random" departSpeed="10" />
    <vehicle id="down_to_right_146" type="standard_car" route="down_to_right" depart="503" departLane="random" departSpeed="10" />
    <vehicle id="down_to_right_147" type="standard_car" route="down_to_right" depart="503" departLane="random" departSpeed="10" />
    <vehicle id="down_to_left_148" type="standard_car" route="down_to_left" depart="508" departLane="random" departSpeed="10" />
    <vehicle id="down_uturn_149" type="standard_car" route="down_uturn" depart="509" departLane="random" departSpeed="10" />
    <vehicle id="left_to_right_150" type="standard_car" route="left_to_right" depart="514" departLane="random" departSpeed="10" />
    <vehicle id="down_to_left_151" type="standard_car" route="down_to_left" depart="516" departLane="random" departSpeed="10" />
    <vehicle id="down_to_left_152" type="standard_car" route="down_to_left" depart="517" departLane="random" departSpeed="10" />
    <vehicle id="left_uturn_153" type="standard_car" route="left_uturn" depart="520" departLane="random" departSpeed="10" />
    <vehicle id="left_uturn_154" type="standard_car" route="left_uturn" depart="521" departLane="random" departSpeed="10" />
    <vehicle id="down_to_left_155" type="standard_car" route="down_to_left" depart="522" departLane="random" departSpeed="10" />
    <vehicle id="left_to_right_156" type="standard_car" route="left_to_right" depart="527" departLane="random" departSpeed="10" />
    <vehicle id="down_to_right_157" type="standard_car" route="down_to_right" depart="529" departLane="random" departSpeed="10" />
    <vehicle id="down_to_left_158" type="standard_car" route="down_to_left" depart="532" departLane="random" departSpeed="10" />
    <vehicle id="right_uturn_159" type="standard_car" route="right_uturn" depart="532" departLane="random" departSpeed="10" />
    <vehicle id="left_to_right_160" type="standard_car" route="left_to_right" depart="533" departLane="random" departSpeed="10" />
    <vehicle id="down_to_right_161" type="standard_car" route="down_to_right" depart="534" departLane="random" departSpeed="10" />
    <vehicle id="down_to_right_162" type="standard_car" route="down_to_right" depart="534" departLane="random" departSpeed="10" />
    <vehicle id="left_uturn_163" type="standard_car" route="left_uturn" depart="538" departLane="random" departSpeed="10" />
    <vehicle id="down_to_right_164" type="standard_car" route="down_to_right" depart="538" departLane="random" departSpeed="10" />
    <vehicle id="down_to_left_165" type="standard_car" route="down_to_left" depart="538" departLane="random" departSpeed="10" />
    <vehicle id="down_uturn_166" type="standard_car" route="down_uturn" depart="541" departLane="random" departSpeed="10" />
    <vehicle id="down_to_left_167" type="standard_car" route="down_to_left" depart="542" departLane="random" departSpeed="10" />
    <vehicle id="left_to_right_168" type="standard_car" route="left_to_right" depart="548" departLane="random" departSpeed="10" />
    <vehicle id="right_uturn_169" type="standard_car" route="right_uturn" depart="548" departLane="random" departSpeed="10" />
    <vehicle id="down_to_right_170" type="standard_car" route="down_to_right" depart="553" departLane="random" departSpeed="10" />
    <vehicle id="left_uturn_171" type="standard_car" route="left_uturn" depart="554" departLane="random" departSpeed="10" />
    <vehicle id="left_to_right_172" type="standard_car" route="left_to_right" depart="554" departLane="random" departSpeed="10" />
    <vehicle id="down_to_right_173" type="standard_car" route="down_to_right" depart="557" departLane="random" departSpeed="10" />
    <vehicle id="left_to_right_174" type="standard_car" route="left_to_right" depart="557" departLane="random" departSpeed="10" />
    <vehicle id="right_to_left_175" type="standard_car" route="right_to_left" depart="559" departLane="random" departSpeed="10" />
    <vehicle id="down_to_left_176" type="standard_car" route="down_to_left" depart="561" departLane="random" departSpeed="10" />
    <vehicle id="down_to_left_177" type="standard_car" route="down_to_left" depart="561" departLane="random" departSpeed="10" />
    <vehicle id="down_uturn_178" type="standard_car" route="down_uturn" depart="563" departLane="random" departSpeed="10" />
    <vehicle id="right_to_left_179" type="standard_car" route="right_to_left" depart="564" departLane="random" departSpeed="10" />
    <vehicle id="left_uturn_180" type="standard_car" route="left_uturn" depart="564" departLane="random" departSpeed="10" />
    <vehicle id="left_uturn_181" type="standard_car" route="left_uturn" depart="564" departLane="random" departSpeed="10" />
    <vehicle id="left_uturn_182" type="standard_car" route="left_uturn" depart="565" departLane="random" departSpeed="10" />
    <vehicle id="left_uturn_183" type="standard_car" route="left_uturn" depart="566" departLane="random" departSpeed="10" />
    <vehicle id="down_to_left_184" type="standard_car" route="down_to_left" depart="572" departLane="random" departSpeed="10" />
    <vehicle id="left_uturn_185" type="standard_car" route="left_uturn" depart="574" departLane="random" departSpeed="10" />
    <vehicle id="down_to_right_186" type="standard_car" route="down_to_right" depart="574" departLane="random" departSpeed="10" />
    <vehicle id="left_to_right_187" type="standard_car" route="left_to_right" depart="575" departLane="random" departSpeed="10" />
    <vehicle id="down_uturn_188" type="standard_car" route="down_uturn" depart="579" departLane="random" departSpeed="10" />
    <vehicle id="right_to_left_189" type="standard_car" route="right_to_left" depart="580" departLane="random" departSpeed="10" />
    <vehicle id="left_uturn_190" type="standard_car" route="left_uturn" depart="581" departLane="random" departSpeed="10" />
    <vehicle id="down_to_right_191" type="standard_car" route="down_to_right" depart="583" departLane="random" departSpeed="10" />
    <vehicle id="right_to_left_192" type="standard_car" route="right_to_left" depart="583" departLane="random" departSpeed="10" />
    <vehicle id="down_uturn_193" type="standard_car" route="down_uturn" depart="584" departLane="random" departSpeed="10" />
    <vehicle id="right_uturn_194" type="standard_car" route="right_uturn" depart="589" departLane="random" departSpeed="10" />
    <vehicle id="down_to_right_195" type="standard_car" route="down_to_right" depart="596" departLane="random" departSpeed="10" />
    <vehicle id="left_uturn_196" type="standard_car" route="left_uturn" depart="598" departLane="random" departSpeed="10" />
    <vehicle id="down_uturn_197" type="standard_car" route="down_uturn" depart="600" departLane="random" departSpeed="10" />
    <vehicle id="down_to_left_198" type="standard_car" route="down_to_left" depart="601" departLane="random" departSpeed="10" />
    <vehicle id="down_to_left_199" type="standard_car" route="down_to_left" depart="604" departLane="random" departSpeed="10" />
    <vehicle id="left_to_right_200" type="standard_car" route="left_to_right" depart="605" departLane="random" departSpeed="10" />
    <vehicle id="down_to_left_201" type="standard_car" route="down_to_left" depart="606" departLane="random" departSpeed="10" />
    <vehicle id="down_to_left_202" type="standard_car" route="down_to_left" depart="610" departLane="random" departSpeed="10" />
    <vehicle id="right_to_left_203" type="standard_car" route="right_to_left" depart="611" departLane="random" departSpeed="10" />
    <vehicle id="right_to_left_204" type="standard_car" route="right_to_left" depart="611" departLane="random" departSpeed="10" />
    <vehicle id="right_to_left_205" type="standard_car" route="right_to_left" depart="612" departLane="random" departSpeed="10" />
    <vehicle id="down_to_right_206" type="standard_car" route="down_to_right" depart="615" departLane="random" departSpeed="10" />
    <vehicle id="right_uturn_207" type="standard_car" route="right_uturn" depart="615" departLane="random" departSpeed="10" />
    <vehicle id="left_uturn_208" type="standard_car" route="left_uturn" depart="615" departLane="random" departSpeed="10" />
    <vehicle id="left_uturn_209" type="standard_car" route="left_uturn" depart="617" departLane="random" departSpeed="10" />
    <vehicle id="down_to_right_210" type="standard_car" route="down_to_right" depart="619" departLane="random" departSpeed="10" />
    <vehicle id="down_to_left_211" type="standard_car" route="down_to_left" depart="620" departLane="random" departSpeed="10" />
    <vehicle id="down_to_right_212" type="standard_car" route="down_to_right" depart="621" departLane="random" departSpeed="10" />
    <vehicle id="down_to_right_213" type="standard_car" route="down_to_right" depart="626" departLane="random" departSpeed="10" />
    <vehicle id="down_to_right_214" type="standard_car" route="down_to_right" depart="626" departLane="random" departSpeed="10" />
    <vehicle id="down_to_left_215" type="standard_car" route="down_to_left" depart="628" departLane="random" departSpeed="10" />
    <vehicle id="down_to_right_216" type="standard_car" route="down_to_right" depart="629" departLane="random" departSpeed="10" />
    <vehicle id="right_uturn_217" type="standard_car" route="right_uturn" depart="629" departLane="random" departSpeed="10" />
    <vehicle id="down_to_right_218" type="standard_car" route="down_to_right" depart="629" departLane="random" departSpeed="10" />
    <vehicle id="down_to_right_219" type="standard_car" route="down_to_right" depart="630" departLane="random" departSpeed="10" />
    <vehicle id="right_uturn_220" type="standard_car" route="right_uturn" depart="633" departLane="random" departSpeed="10" />
    <vehicle id="down_to_right_221" type="standard_car" route="down_to_right" depart="633" departLane="random" departSpeed="10" />
    <vehicle id="right_to_left_222" type="standard_car" route="right_to_left" depart="633" departLane="random" departSpeed="10" />
    <vehicle id="down_to_right_223" type="standard_car" route="down_to_right" depart="638" departLane="random" departSpeed="10" />
    <vehicle id="down_uturn_224" type="standard_car" route="down_uturn" depart="642" departLane="random" departSpeed="10" />
    <vehicle id="down_to_right_225" type="standard_car" route="down_to_right" depart="644" departLane="random" departSpeed="10" />
    <vehicle id="down_uturn_226" type="standard_car" route="down_uturn" depart="644" departLane="random" departSpeed="10" />
    <vehicle id="down_to_left_227" type="standard_car" route="down_to_left" depart="644" departLane="random" departSpeed="10" />