<?xml version="1.0" encoding="UTF-8"?>
<nodes >

    <!-- Example coordinates to form a T-intersection -->
    <node id="left"   x="0"   y="0"   type="priority"/>
    <node id="center" x="100" y="0"   type="traffic_light"/>
    <node id="right"  x="200" y="0"   type="priority"/>
    <node id="down"   x="100" y="-100" type="priority"/>

</nodes>
