<routes>
    <vType id="emergency" accel="3.0" decel="6.0" color="1,0,0" maxSpeed="20" sigma="0.5" emergency="true"/>
    <vType id="standard_car" accel="1.0" decel="4.5" length="5.0" minGap="2.5" maxSpeed="25" sigma="0.5"/>
    
    <route id="left_to_right" edges="left_to_center center_to_right"/>
    <route id="right_to_left" edges="right_to_center center_to_left"/>
    <route id="down_to_left" edges="down_to_center center_to_left"/>
    <route id="down_to_right" edges="down_to_center center_to_right"/>
    
    <route id="left_uturn" edges="left_to_center center_to_left"/>
    <route id="right_uturn" edges="right_to_center center_to_right"/>
    <route id="down_uturn" edges="down_to_center center_to_down"/>
    <vehicle id="down_uturn_0" type="standard_car" route="down_uturn" depart="36" departLane="random" departSpeed="10" />
    <vehicle id="down_to_left_1" type="standard_car" route="down_to_left" depart="50" departLane="random" departSpeed="10" />
    <vehicle id="left_to_right_2" type="standard_car" route="left_to_right" depart="50" departLane="random" departSpeed="10" />
    <vehicle id="right_to_left_3" type="standard_car" route="right_to_left" depart="51" departLane="random" departSpeed="10" />
    <vehicle id="left_uturn_4" type="standard_car" route="left_uturn" depart="63" departLane="random" departSpeed="10" />
    <vehicle id="down_to_right_5" type="standard_car" route="down_to_right" depart="72" departLane="random" departSpeed="10" />
    <vehicle id="right_uturn_6" type="standard_car" route="right_uturn" depart="73" departLane="random" departSpeed="10" />
    <vehicle id="left_to_right_7" type="standard_car" route="left_to_right" depart="79" departLane="random" departSpeed="10" />
    <vehicle id="down_uturn_8" type="standard_car" route="down_uturn" depart="83" departLane="random" departSpeed="10" />
    <vehicle id="emergency_0" type="emergency" route="right_to_left" depart="85" departLane="random" departSpeed="10" />
    <vehicle id="down_to_left_9" type="standard_car" route="down_to_left" depart="89" departLane="random" departSpeed="10" />
    <vehicle id="down_to_left_10" type="standard_car" route="down_to_left" depart="104" departLane="random" departSpeed="10" />
    <vehicle id="right_to_left_11" type="standard_car" route="right_to_left" depart="124" departLane="random" departSpeed="10" />
    <vehicle id="left_uturn_12" type="standard_car" route="left_uturn" depart="132" departLane="random" departSpeed="10" />
    <vehicle id="left_to_right_13" type="standard_car" route="left_to_right" depart="136" departLane="random" departSpeed="10" />
    <vehicle id="down_to_left_14" type="standard_car" route="down_to_left" depart="138" departLane="random" departSpeed="10" />
    <vehicle id="left_to_right_15" type="standard_car" route="left_to_right" depart="143" departLane="random" departSpeed="10" />
    <vehicle id="left_uturn_16" type="standard_car" route="left_uturn" depart="148" departLane="random" departSpeed="10" />
    <vehicle id="left_to_right_17" type="standard_car" route="left_to_right" depart="150" departLane="random" departSpeed="10" />
    <vehicle id="emergency_1" type="emergency" route="down_uturn" depart="161" departLane="random" departSpeed="10" />
    <vehicle id="left_to_right_18" type="standard_car" route="left_to_right" depart="169" departLane="random" departSpeed="10" />
    <vehicle id="right_to_left_19" type="standard_car" route="right_to_left" depart="169" departLane="random" departSpeed="10" />
    <vehicle id="left_to_right_20" type="standard_car" route="left_to_right" depart="170" departLane="random" departSpeed="10" />
    <vehicle id="down_to_left_21" type="standard_car" route="down_to_left" depart="172" departLane="random" departSpeed="10" />
    <vehicle id="left_to_right_22" type="standard_car" route="left_to_right" depart="174" departLane="random" departSpeed="10" />
    <vehicle id="right_to_left_23" type="standard_car" route="right_to_left" depart="182" departLane="random" departSpeed="10" />
    <vehicle id="down_to_left_24" type="standard_car" route="down_to_left" depart="183" departLane="random" departSpeed="10" />
    <vehicle id="down_to_right_25" type="standard_car" route="down_to_right" depart="189" departLane="random" departSpeed="10" />
    <vehicle id="right_uturn_26" type="standard_car" route="right_uturn" depart="190" departLane="random" departSpeed="10" />
    <vehicle id="down_to_left_27" type="standard_car" route="down_to_left" depart="195" departLane="random" departSpeed="10" />
    <vehicle id="left_uturn_28" type="standard_car" route="left_uturn" depart="225" departLane="random" departSpeed="10" />
    <vehicle id="down_to_right_29" type="standard_car" route="down_to_right" depart="225" departLane="random" departSpeed="10" />
    <vehicle id="down_to_left_30" type="standard_car" route="down_to_left" depart="228" departLane="random" departSpeed="10" />
    <vehicle id="down_to_left_31" type="standard_car" route="down_to_left" depart="231" departLane="random" departSpeed="10" />
    <vehicle id="down_to_right_32" type="standard_car" route="down_to_right" depart="232" departLane="random" departSpeed="10" />
    <vehicle id="right_uturn_33" type="standard_car" route="right_uturn" depart="236" departLane="random" departSpeed="10" />
    <vehicle id="right_uturn_34" type="standard_car" route="right_uturn" depart="239" departLane="random" departSpeed="10" />
    <vehicle id="right_to_left_35" type="standard_car" route="right_to_left" depart="249" departLane="random" departSpeed="10" />
    <vehicle id="right_uturn_36" type="standard_car" route="right_uturn" depart="250" departLane="random" departSpeed="10" />
    <vehicle id="right_uturn_37" type="standard_car" route="right_uturn" depart="251" departLane="random" departSpeed="10" />
    <vehicle id="right_to_left_38" type="standard_car" route="right_to_left" depart="254" departLane="random" departSpeed="10" />
    <vehicle id="right_to_left_39" type="standard_car" route="right_to_left" depart="254" departLane="random" departSpeed="10" />
    <vehicle id="down_to_right_40" type="standard_car" route="down_to_right" depart="255" departLane="random" departSpeed="10" />
    <vehicle id="down_uturn_41" type="standard_car" route="down_uturn" depart="255" departLane="random" departSpeed="10" />
    <vehicle id="down_to_right_42" type="standard_car" route="down_to_right" depart="260" departLane="random" departSpeed="10" />
    <vehicle id="left_to_right_43" type="standard_car" route="left_to_right" depart="262" departLane="random" departSpeed="10" />
    <vehicle id="right_uturn_44" type="standard_car" route="right_uturn" depart="263" departLane="random" departSpeed="10" />
    <vehicle id="down_to_left_45" type="standard_car" route="down_to_left" depart="272" departLane="random" departSpeed="10" />
    <vehicle id="right_to_left_46" type="standard_car" route="right_to_left" depart="274" departLane="random" departSpeed="10" />
    <vehicle id="right_to_left_47" type="standard_car" route="right_to_left" depart="275" departLane="random" departSpeed="10" />
    <vehicle id="emergency_2" type="emergency" route="left_to_right" depart="279" departLane="random" departSpeed="10" />
    <vehicle id="down_to_right_48" type="standard_car" route="down_to_right" depart="288" departLane="random" departSpeed="10" />
    <vehicle id="left_to_right_49" type="standard_car" route="left_to_right" depart="290" departLane="random" departSpeed="10" />
    <vehicle id="left_to_right_50" type="standard_car" route="left_to_right" depart="291" departLane="random" departSpeed="10" />
    <vehicle id="down_to_left_51" type="standard_car" route="down_to_left" depart="292" departLane="random" departSpeed="10" />
    <vehicle id="down_to_right_52" type="standard_car" route="down_to_right" depart="307" departLane="random" departSpeed="10" />
    <vehicle id="right_to_left_53" type="standard_car" route="right_to_left" depart="309" departLane="random" departSpeed="10" />
    <vehicle id="down_to_left_54" type="standard_car" route="down_to_left" depart="310" departLane="random" departSpeed="10" />
    <vehicle id="down_to_right_55" type="standard_car" route="down_to_right" depart="314" departLane="random" departSpeed="10" />
    <vehicle id="down_to_left_56" type="standard_car" route="down_to_left" depart="314" departLane="random" departSpeed="10" />
    <vehicle id="left_uturn_57" type="standard_car" route="left_uturn" depart="316" departLane="random" departSpeed="10" />
    <vehicle id="right_uturn_58" type="standard_car" route="right_uturn" depart="319" departLane="random" departSpeed="10" />
    <vehicle id="right_to_left_59" type="standard_car" route="right_to_left" depart="321" departLane="random" departSpeed="10" />
    <vehicle id="right_to_left_60" type="standard_car" route="right_to_left" depart="331" departLane="random" departSpeed="10" />
    <vehicle id="right_to_left_61" type="standard_car" route="right_to_left" depart="336" departLane="random" departSpeed="10" />
    <vehicle id="right_uturn_62" type="standard_car" route="right_uturn" depart="338" departLane="random" departSpeed="10" />
    <vehicle id="left_to_right_63" type="standard_car" route="left_to_right" depart="341" departLane="random" departSpeed="10" />
    <vehicle id="down_to_right_64" type="standard_car" route="down_to_right" depart="341" departLane="random" departSpeed="10" />
    <vehicle id="left_to_right_65" type="standard_car" route="left_to_right" depart="341" departLane="random" departSpeed="10" />
    <vehicle id="down_to_left_66" type="standard_car" route="down_to_left" depart="341" departLane="random" departSpeed="10" />
    <vehicle id="left_to_right_67" type="standard_car" route="left_to_right" depart="342" departLane="random" departSpeed="10" />
    <vehicle id="down_uturn_68" type="standard_car" route="down_uturn" depart="342" departLane="random" departSpeed="10" />
    <vehicle id="left_uturn_69" type="standard_car" route="left_uturn" depart="343" departLane="random" departSpeed="10" />
    <vehicle id="left_to_right_70" type="standard_car" route="left_to_right" depart="346" departLane="random" departSpeed="10" />
    <vehicle id="left_uturn_71" type="standard_car" route="left_uturn" depart="346" departLane="random" departSpeed="10" />
    <vehicle id="down_to_left_72" type="standard_car" route="down_to_left" depart="354" departLane="random" departSpeed="10" />
    <vehicle id="right_to_left_73" type="standard_car" route="right_to_left" depart="357" departLane="random" departSpeed="10" />
    <vehicle id="emergency_3" type="emergency" route="down_uturn" depart="361" departLane="random" departSpeed="10" />
    <vehicle id="down_to_left_74" type="standard_car" route="down_to_left" depart="363" departLane="random" departSpeed="10" />
    <vehicle id="right_uturn_75" type="standard_car" route="right_uturn" depart="365" departLane="random" departSpeed="10" />
    <vehicle id="down_uturn_76" type="standard_car" route="down_uturn" depart="366" departLane="random" departSpeed="10" />
    <vehicle id="down_to_right_77" type="standard_car" route="down_to_right" depart="366" departLane="random" departSpeed="10" />
    <vehicle id="right_to_left_78" type="standard_car" route="right_to_left" depart="369" departLane="random" departSpeed="10" />
    <vehicle id="right_to_left_79" type="standard_car" route="right_to_left" depart="372" departLane="random" departSpeed="10" />
    <vehicle id="right_to_left_80" type="standard_car" route="right_to_left" depart="372" departLane="random" departSpeed="10" />
    <vehicle id="emergency_4" type="emergency" route="right_uturn" depart="373" departLane="random" departSpeed="10" />
    <vehicle id="down_to_right_81" type="standard_car" route="down_to_right" depart="374" departLane="random" departSpeed="10" />
    <vehicle id="down_uturn_82" type="standard_car" route="down_uturn" depart="374" departLane="random" departSpeed="10" />
    <vehicle id="down_uturn_83" type="standard_car" route="down_uturn" depart="376" departLane="random" departSpeed="10" />
    <vehicle id="left_to_right_84" type="standard_car" route="left_to_right" depart="377" departLane="random" departSpeed="10" />
    <vehicle id="left_to_right_85" type="standard_car" route="left_to_right" depart="382" departLane="random" departSpeed="10" />
    <vehicle id="down_to_left_86" type="standard_car" route="down_to_left" depart="383" departLane="random" departSpeed="10" />
    <vehicle id="down_to_right_87" type="standard_car" route="down_to_right" depart="389" departLane="random" departSpeed="10" />
    <vehicle id="down_to_left_88" type="standard_car" route="down_to_left" depart="393" departLane="random" departSpeed="10" />
    <vehicle id="down_to_left_89" type="standard_car" route="down_to_left" depart="394" departLane="random" departSpeed="10" />
    <vehicle id="right_to_left_90" type="standard_car" route="right_to_left" depart="395" departLane="random" departSpeed="10" />
    <vehicle id="down_to_left_91" type="standard_car" route="down_to_left" depart="397" departLane="random" departSpeed="10" />
    <vehicle id="left_to_right_92" type="standard_car" route="left_to_right" depart="398" departLane="random" departSpeed="10" />
    <vehicle id="right_to_left_93" type="standard_car" route="right_to_left" depart="399" departLane="random" departSpeed="10" />
    <vehicle id="right_to_left_94" type="standard_car" route="right_to_left" depart="403" departLane="random" departSpeed="10" />
    <vehicle id="down_to_left_95" type="standard_car" route="down_to_left" depart="403" departLane="random" departSpeed="10" />
    <vehicle id="down_to_left_96" type="standard_car" route="down_to_left" depart="404" departLane="random" departSpeed="10" />
    <vehicle id="right_to_left_97" type="standard_car" route="right_to_left" depart="405" departLane="random" departSpeed="10" />
    <vehicle id="right_uturn_98" type="standard_car" route="right_uturn" depart="405" departLane="random" departSpeed="10" />
    <vehicle id="right_uturn_99" type="standard_car" route="right_uturn" depart="406" departLane="random" departSpeed="10" />
    <vehicle id="down_to_right_100" type="standard_car" route="down_to_right" depart="407" departLane="random" departSpeed="10" />
    <vehicle id="down_to_left_101" type="standard_car" route="down_to_left" depart="412" departLane="random" departSpeed="10" />
    <vehicle id="right_to_left_102" type="standard_car" route="right_to_left" depart="414" departLane="random" departSpeed="10" />
    <vehicle id="down_to_left_103" type="standard_car" route="down_to_left" depart="414" departLane="random" departSpeed="10" />
    <vehicle id="down_to_left_104" type="standard_car" route="down_to_left" depart="418" departLane="random" departSpeed="10" />
    <vehicle id="right_uturn_105" type="standard_car" route="right_uturn" depart="419" departLane="random" departSpeed="10" />
    <vehicle id="right_uturn_106" type="standard_car" route="right_uturn" depart="419" departLane="random" departSpeed="10" />
    <vehicle id="down_to_right_107" type="standard_car" route="down_to_right" depart="422" departLane="random" departSpeed="10" />
    <vehicle id="left_uturn_108" type="standard_car" route="left_uturn" depart="425" departLane="random" departSpeed="10" />
    <vehicle id="left_to_right_109" type="standard_car" route="left_to_right" depart="426" departLane="random" departSpeed="10" />
    <vehicle id="right_to_left_110" type="standard_car" route="right_to_left" depart="428" departLane="random" departSpeed="10" />
    <vehicle id="down_to_right_111" type="standard_car" route="down_to_right" depart="434" departLane="random" departSpeed="10" />
    <vehicle id="down_to_left_112" type="standard_car" route="down_to_left" depart="435" departLane="random" departSpeed="10" />
    <vehicle id="right_uturn_113" type="standard_car" route="right_uturn" depart="438" departLane="random" departSpeed="10" />
    <vehicle id="left_uturn_114" type="standard_car" route="left_uturn" depart="446" departLane="random" departSpeed="10" />
    <vehicle id="down_to_right_115" type="standard_car" route="down_to_right" depart="447" departLane="random" departSpeed="10" />
    <vehicle id="down_to_right_116" type="standard_car" route="down_to_right" depart="451" departLane="random" departSpeed="10" />
    <vehicle id="down_to_left_117" type="standard_car" route="down_to_left" depart="451" departLane="random" departSpeed="10" />
    <vehicle id="down_to_left_118" type="standard_car" route="down_to_left" depart="451" departLane="random" departSpeed="10" />
    <vehicle id="down_to_left_119" type="standard_car" route="down_to_left" depart="453" departLane="random" departSpeed="10" />
    <vehicle id="left_uturn_120" type="standard_car" route="left_uturn" depart="454" departLane="random" departSpeed="10" />
    <vehicle id="left_to_right_121" type="standard_car" route="left_to_right" depart="456" departLane="random" departSpeed="10" />
    <vehicle id="left_to_right_122" type="standard_car" route="left_to_right" depart="457" departLane="random" departSpeed="10" />
    <vehicle id="down_to_right_123" type="standard_car" route="down_to_right" depart="460" departLane="random" departSpeed="10" />
    <vehicle id="down_to_right_124" type="standard_car" route="down_to_right" depart="464" departLane="random" departSpeed="10" />
    <vehicle id="right_to_left_125" type="standard_car" route="right_to_left" depart="466" departLane="random" departSpeed="10" />
    <vehicle id="down_to_right_126" type="standard_car" route="down_to_right" depart="466" departLane="random" departSpeed="10" />
    <vehicle id="left_to_right_127" type="standard_car" route="left_to_right" depart="467" departLane="random" departSpeed="10" />
    <vehicle id="left_uturn_128" type="standard_car" route="left_uturn" depart="470" departLane="random" departSpeed="10" />
    <vehicle id="down_to_right_129" type="standard_car" route="down_to_right" depart="470" departLane="random" departSpeed="10" />
    <vehicle id="down_to_left_130" type="standard_car" route="down_to_left" depart="470" departLane="random" departSpeed="10" />
    <vehicle id="left_uturn_131" type="standard_car" route="left_uturn" depart="471" departLane="random" departSpeed="10" />
    <vehicle id="right_uturn_132" type="standard_car" route="right_uturn" depart="472" departLane="random" departSpeed="10" />
    <vehicle id="down_to_left_133" type="standard_car" route="down_to_left" depart="473" departLane="random" departSpeed="10" />
    <vehicle id="right_to_left_134" type="standard_car" route="right_to_left" depart="476" departLane="random" departSpeed="10" />
    <vehicle id="down_to_right_135" type="standard_car" route="down_to_right" depart="476" departLane="random" departSpeed="10" />
    <vehicle id="left_uturn_136" type="standard_car" route="left_uturn" depart="477" departLane="random" departSpeed="10" />
    <vehicle id="down_to_right_137" type="standard_car" route="down_to_right" depart="478" departLane="random" departSpeed="10" />
    <vehicle id="right_to_left_138" type="standard_car" route="right_to_left" depart="479" departLane="random" departSpeed="10" />
    <vehicle id="down_to_right_139" type="standard_car" route="down_to_right" depart="481" departLane="random" departSpeed="10" />
    <vehicle id="down_to_right_140" type="standard_car" route="down_to_right" depart="482" departLane="random" departSpeed="10" />
    <vehicle id="right_uturn_141" type="standard_car" route="right_uturn" depart="483" departLane="random" departSpeed="10" />
    <vehicle id="down_to_left_142" type="standard_car" route="down_to_left" depart="483" departLane="random" departSpeed="10" />
    <vehicle id="left_uturn_143" type="standard_car" route="left_uturn" depart="485" departLane="random" departSpeed="10" />
    <vehicle id="right_to_left_144" type="standard_car" route="right_to_left" depart="491" departLane="random" departSpeed="10" />
    <vehicle id="left_uturn_145" type="standard_car" route="left_uturn" depart="492" departLane="random" departSpeed="10" />
    <vehicle id="down_to_right_146" type="standard_car" route="down_to_right" depart="493" departLane="random" departSpeed="10" />
    <vehicle id="left_uturn_147" type="standard_car" route="left_uturn" depart="494" departLane="random" departSpeed="10" />
    <vehicle id="right_to_left_148" type="standard_car" route="right_to_left" depart="497" departLane="random" departSpeed="10" />
    <vehicle id="left_to_right_149" type="standard_car" route="left_to_right" depart="498" departLane="random" departSpeed="10" />
    <vehicle id="right_to_left_150" type="standard_car" route="right_to_left" depart="499" departLane="random" departSpeed="10" />
    <vehicle id="down_uturn_151" type="standard_car" route="down_uturn" depart="500" departLane="random" departSpeed="10" />
    <vehicle id="right_to_left_152" type="standard_car" route="right_to_left" depart="500" departLane="random" departSpeed="10" />
    <vehicle id="down_to_right_153" type="standard_car" route="down_to_right" depart="500" departLane="random" departSpeed="10" />
    <vehicle id="down_uturn_154" type="standard_car" route="down_uturn" depart="501" departLane="random" departSpeed="10" />
    <vehicle id="right_to_left_155" type="standard_car" route="right_to_left" depart="501" departLane="random" departSpeed="10" />
    <vehicle id="right_to_left_156" type="standard_car" route="right_to_left" depart="505" departLane="random" departSpeed="10" />
    <vehicle id="left_uturn_157" type="standard_car" route="left_uturn" depart="506" departLane="random" departSpeed="10" />
    <vehicle id="left_uturn_158" type="standard_car" route="left_uturn" depart="506" departLane="random" departSpeed="10" />
    <vehicle id="right_to_left_159" type="standard_car" route="right_to_left" depart="510" departLane="random" departSpeed="10" />
    <vehicle id="down_to_right_160" type="standard_car" route="down_to_right" depart="511" departLane="random" departSpeed="10" />
    <vehicle id="left_to_right_161" type="standard_car" route="left_to_right" depart="511" departLane="random" departSpeed="10" />
    <vehicle id="down_to_left_162" type="standard_car" route="down_to_left" depart="514" departLane="random" departSpeed="10" />
    <vehicle id="right_to_left_163" type="standard_car" route="right_to_left" depart="519" departLane="random" departSpeed="10" />
    <vehicle id="down_to_left_164" type="standard_car" route="down_to_left" depart="520" departLane="random" departSpeed="10" />
    <vehicle id="right_uturn_165" type="standard_car" route="right_uturn" depart="521" departLane="random" departSpeed="10" />
    <vehicle id="down_to_left_166" type="standard_car" route="down_to_left" depart="523" departLane="random" departSpeed="10" />
    <vehicle id="right_uturn_167" type="standard_car" route="right_uturn" depart="523" departLane="random" departSpeed="10" />
    <vehicle id="down_uturn_168" type="standard_car" route="down_uturn" depart="525" departLane="random" departSpeed="10" />
    <vehicle id="left_uturn_169" type="standard_car" route="left_uturn" depart="527" departLane="random" departSpeed="10" />
    <vehicle id="right_uturn_170" type="standard_car" route="right_uturn" depart="528" departLane="random" departSpeed="10" />
    <vehicle id="right_to_left_171" type="standard_car" route="right_to_left" depart="530" departLane="random" departSpeed="10" />
    <vehicle id="down_to_left_172" type="standard_car" route="down_to_left" depart="534" departLane="random" departSpeed="10" />
    <vehicle id="left_to_right_173" type="standard_car" route="left_to_right" depart="538" departLane="random" departSpeed="10" />
    <vehicle id="down_to_left_174" type="standard_car" route="down_to_left" depart="539" departLane="random" departSpeed="10" />
    <vehicle id="down_to_right_175" type="standard_car" route="down_to_right" depart="540" departLane="random" departSpeed="10" />
    <vehicle id="left_to_right_176" type="standard_car" route="left_to_right" depart="540" departLane="random" departSpeed="10" />
    <vehicle id="right_uturn_177" type="standard_car" route="right_uturn" depart="540" departLane="random" departSpeed="10" />
    <vehicle id="left_to_right_178" type="standard_car" route="left_to_right" depart="543" departLane="random" departSpeed="10" />
    <vehicle id="down_to_left_179" type="standard_car" route="down_to_left" depart="544" departLane="random" departSpeed="10" />
    <vehicle id="down_to_right_180" type="standard_car" route="down_to_right" depart="546" departLane="random" departSpeed="10" />
    <vehicle id="right_to_left_181" type="standard_car" route="right_to_left" depart="549" departLane="random" departSpeed="10" />
    <vehicle id="down_to_right_182" type="standard_car" route="down_to_right" depart="551" departLane="random" departSpeed="10" />
    <vehicle id="right_to_left_183" type="standard_car" route="right_to_left" depart="555" departLane="random" departSpeed="10" />
    <vehicle id="right_to_left_184" type="standard_car" route="right_to_left" depart="560" departLane="random" departSpeed="10" />
    <vehicle id="down_to_left_185" type="standard_car" route="down_to_left" depart="560" departLane="random" departSpeed="10" />
    <vehicle id="left_to_right_186" type="standard_car" route="left_to_right" depart="560" departLane="random" departSpeed="10" />
    <vehicle id="right_to_left_187" type="standard_car" route="right_to_left" depart="563" departLane="random" departSpeed="10" />
    <vehicle id="left_to_right_188" type="standard_car" route="left_to_right" depart="564" departLane="random" departSpeed="10" />
    <vehicle id="down_to_left_189" type="standard_car" route="down_to_left" depart="564" departLane="random" departSpeed="10" />
    <vehicle id="left_to_right_190" type="standard_car" route="left_to_right" depart="567" departLane="random" departSpeed="10" />
    <vehicle id="left_uturn_191" type="standard_car" route="left_uturn" depart="568" departLane="random" departSpeed="10" />
    <vehicle id="left_to_right_192" type="standard_car" route="left_to_right" depart="570" departLane="random" departSpeed="10" />
    <vehicle id="left_to_right_193" type="standard_car" route="left_to_right" depart="570" departLane="random" departSpeed="10" />
    <vehicle id="down_uturn_194" type="standard_car" route="down_uturn" depart="571" departLane="random" departSpeed="10" />
    <vehicle id="left_to_right_195" type="standard_car" route="left_to_right" depart="571" departLane="random" departSpeed="10" />
    <vehicle id="down_to_left_196" type="standard_car" route="down_to_left" depart="572" departLane="random" departSpeed="10" />
    <vehicle id="down_to_left_197" type="standard_car" route="down_to_left" depart="572" departLane="random" departSpeed="10" />
    <vehicle id="down_to_left_198" type="standard_car" route="down_to_left" depart="572" departLane="random" departSpeed="10" />
    <vehicle id="right_to_left_199" type="standard_car" route="right_to_left" depart="576" departLane="random" departSpeed="10" />
    <vehicle id="right_to_left_200" type="standard_car" route="right_to_left" depart="579" departLane="random" departSpeed="10" />
    <vehicle id="left_uturn_201" type="standard_car" route="left_uturn" depart="581" departLane="random" departSpeed="10" />
    <vehicle id="down_to_left_202" type="standard_car" route="down_to_left" depart="582" departLane="random" departSpeed="10" />
    <vehicle id="left_to_right_203" type="standard_car" route="left_to_right" depart="583" departLane="random" departSpeed="10" />
    <vehicle id="down_to_left_204" type="standard_car" route="down_to_left" depart="583" departLane="random" departSpeed="10" />
    <vehicle id="right_uturn_205" type="standard_car" route="right_uturn" depart="584" departLane="random" departSpeed="10" />
    <vehicle id="left_uturn_206" type="standard_car" route="left_uturn" depart="600" departLane="random" departSpeed="10" />
    <vehicle id="right_to_left_207" type="standard_car" route="right_to_left" depart="603" departLane="random" departSpeed="10" />
    <vehicle id="right_uturn_208" type="standard_car" route="right_uturn" depart="603" departLane="random" departSpeed="10" />
    <vehicle id="right_to_left_209" type="standard_car" route="right_to_left" depart="603" departLane="random" departSpeed="10" />
    <vehicle id="left_to_right_210" type="standard_car" route="left_to_right" depart="605" departLane="random" departSpeed="10" />
    <vehicle id="down_to_left_211" type="standard_car" route="down_to_left" depart="606" departLane="random" departSpeed="10" />
    <vehicle id="right_uturn_212" type="standard_car" route="right_uturn" depart="607" departLane="random" departSpeed="10" />
    <vehicle id="right_uturn_213" type="standard_car" route="right_uturn" depart="610" departLane="random" departSpeed="10" />
    <vehicle id="emergency_5" type="emergency" route="down_to_right" depart="615" departLane="random" departSpeed="10" />
    <vehicle id="down_to_right_214" type="standard_car" route="down_to_right" depart="616" departLane="random" departSpeed="10" />
    <vehicle id="down_uturn_215" type="standard_car" route="down_uturn" depart="625" departLane="random" departSpeed="10" />
    <vehicle id="left_to_right_216" type="standard_car" route="left_to_right" depart="627" departLane="random" departSpeed="10" />
    <vehicle id="left_uturn_217" type="standard_car" route="left_uturn" depart="629" departLane="random" departSpeed="10" />
    <vehicle id="right_to_left_218" type="standard_car" route="right_to_left" depart="630" departLane="random" departSpeed="10" />
    <vehicle id="down_to_left_219" type="standard_car" route="down_to_left" depart="632" departLane="random" departSpeed="10" />
    <vehicle id="right_uturn_220" type="standard_car" route="right_uturn" depart="633" departLane="random" departSpeed="10" />
    <vehicle id="left_to_right_221" type="standard_car" route="left_to_right" depart="637" departLane="random" departSpeed="10" />