<routes>
    <vType id="emergency" accel="3.0" decel="6.0" color="1,0,0" maxSpeed="20" sigma="0.5" emergency="true"/>
    <vType id="standard_car" accel="1.0" decel="4.5" length="5.0" minGap="2.5" maxSpeed="25" sigma="0.5"/>
    
    <route id="left_to_right" edges="left_to_center center_to_right"/>
    <route id="right_to_left" edges="right_to_center center_to_left"/>
    <route id="down_to_left" edges="down_to_center center_to_left"/>
    <route id="down_to_right" edges="down_to_center center_to_right"/>
    
    <route id="left_uturn" edges="left_to_center center_to_left"/>
    <route id="right_uturn" edges="right_to_center center_to_right"/>
    <route id="down_uturn" edges="down_to_center center_to_down"/>
    <vehicle id="down_to_right_0" type="standard_car" route="down_to_right" depart="12" departLane="random" departSpeed="10" />
    <vehicle id="down_uturn_1" type="standard_car" route="down_uturn" depart="34" departLane="random" departSpeed="10" />
    <vehicle id="emergency_0" type="emergency" route="down_to_left" depart="42" departLane="random" departSpeed="10" />
    <vehicle id="down_to_left_2" type="standard_car" route="down_to_left" depart="52" departLane="random" departSpeed="10" />
    <vehicle id="left_uturn_3" type="standard_car" route="left_uturn" depart="65" departLane="random" departSpeed="10" />
    <vehicle id="right_to_left_4" type="standard_car" route="right_to_left" depart="74" departLane="random" departSpeed="10" />
    <vehicle id="right_uturn_5" type="standard_car" route="right_uturn" depart="77" departLane="random" departSpeed="10" />
    <vehicle id="left_to_right_6" type="standard_car" route="left_to_right" depart="90" departLane="random" departSpeed="10" />
    <vehicle id="down_uturn_7" type="standard_car" route="down_uturn" depart="91" departLane="random" departSpeed="10" />
    <vehicle id="down_to_right_8" type="standard_car" route="down_to_right" depart="96" departLane="random" departSpeed="10" />
    <vehicle id="right_uturn_9" type="standard_car" route="right_uturn" depart="97" departLane="random" departSpeed="10" />
    <vehicle id="down_to_right_10" type="standard_car" route="down_to_right" depart="98" departLane="random" departSpeed="10" />
    <vehicle id="down_uturn_11" type="standard_car" route="down_uturn" depart="99" departLane="random" departSpeed="10" />
    <vehicle id="down_to_right_12" type="standard_car" route="down_to_right" depart="101" departLane="random" departSpeed="10" />
    <vehicle id="down_to_left_13" type="standard_car" route="down_to_left" depart="101" departLane="random" departSpeed="10" />
    <vehicle id="left_to_right_14" type="standard_car" route="left_to_right" depart="103" departLane="random" departSpeed="10" />
    <vehicle id="down_to_right_15" type="standard_car" route="down_to_right" depart="105" departLane="random" departSpeed="10" />
    <vehicle id="right_uturn_16" type="standard_car" route="right_uturn" depart="108" departLane="random" departSpeed="10" />
    <vehicle id="left_to_right_17" type="standard_car" route="left_to_right" depart="123" departLane="random" departSpeed="10" />
    <vehicle id="down_to_left_18" type="standard_car" route="down_to_left" depart="125" departLane="random" departSpeed="10" />
    <vehicle id="right_uturn_19" type="standard_car" route="right_uturn" depart="126" departLane="random" departSpeed="10" />
    <vehicle id="right_to_left_20" type="standard_car" route="right_to_left" depart="127" departLane="random" departSpeed="10" />
    <vehicle id="right_to_left_21" type="standard_car" route="right_to_left" depart="129" departLane="random" departSpeed="10" />
    <vehicle id="down_to_left_22" type="standard_car" route="down_to_left" depart="130" departLane="random" departSpeed="10" />
    <vehicle id="down_to_left_23" type="standard_car" route="down_to_left" depart="134" departLane="random" departSpeed="10" />
    <vehicle id="down_uturn_24" type="standard_car" route="down_uturn" depart="136" departLane="random" departSpeed="10" />
    <vehicle id="left_to_right_25" type="standard_car" route="left_to_right" depart="139" departLane="random" departSpeed="10" />
    <vehicle id="right_to_left_26" type="standard_car" route="right_to_left" depart="140" departLane="random" departSpeed="10" />
    <vehicle id="emergency_1" type="emergency" route="right_uturn" depart="141" departLane="random" departSpeed="10" />
    <vehicle id="down_to_left_27" type="standard_car" route="down_to_left" depart="148" departLane="random" departSpeed="10" />
    <vehicle id="down_to_left_28" type="standard_car" route="down_to_left" depart="154" departLane="random" departSpeed="10" />
    <vehicle id="down_to_right_29" type="standard_car" route="down_to_right" depart="155" departLane="random" departSpeed="10" />
    <vehicle id="down_to_left_30" type="standard_car" route="down_to_left" depart="156" departLane="random" departSpeed="10" />
    <vehicle id="right_to_left_31" type="standard_car" route="right_to_left" depart="160" departLane="random" departSpeed="10" />
    <vehicle id="right_to_left_32" type="standard_car" route="right_to_left" depart="163" departLane="random" departSpeed="10" />
    <vehicle id="down_to_right_33" type="standard_car" route="down_to_right" depart="163" departLane="random" departSpeed="10" />
    <vehicle id="left_uturn_34" type="standard_car" route="left_uturn" depart="165" departLane="random" departSpeed="10" />
    <vehicle id="left_to_right_35" type="standard_car" route="left_to_right" depart="166" departLane="random" departSpeed="10" />
    <vehicle id="right_to_left_36" type="standard_car" route="right_to_left" depart="169" departLane="random" departSpeed="10" />
    <vehicle id="left_to_right_37" type="standard_car" route="left_to_right" depart="169" departLane="random" departSpeed="10" />
    <vehicle id="left_to_right_38" type="standard_car" route="left_to_right" depart="171" departLane="random" departSpeed="10" />
    <vehicle id="down_to_left_39" type="standard_car" route="down_to_left" depart="174" departLane="random" departSpeed="10" />
    <vehicle id="right_to_left_40" type="standard_car" route="right_to_left" depart="174" departLane="random" departSpeed="10" />
    <vehicle id="down_uturn_41" type="standard_car" route="down_uturn" depart="175" departLane="random" departSpeed="10" />
    <vehicle id="down_to_left_42" type="standard_car" route="down_to_left" depart="180" departLane="random" departSpeed="10" />
    <vehicle id="down_to_right_43" type="standard_car" route="down_to_right" depart="181" departLane="random" departSpeed="10" />
    <vehicle id="down_uturn_44" type="standard_car" route="down_uturn" depart="182" departLane="random" departSpeed="10" />
    <vehicle id="down_to_left_45" type="standard_car" route="down_to_left" depart="185" departLane="random" departSpeed="10" />
    <vehicle id="emergency_2" type="emergency" route="down_uturn" depart="187" departLane="random" departSpeed="10" />
    <vehicle id="left_to_right_46" type="standard_car" route="left_to_right" depart="189" departLane="random" departSpeed="10" />
    <vehicle id="down_to_left_47" type="standard_car" route="down_to_left" depart="190" departLane="random" departSpeed="10" />
    <vehicle id="right_to_left_48" type="standard_car" route="right_to_left" depart="190" departLane="random" departSpeed="10" />
    <vehicle id="down_to_left_49" type="standard_car" route="down_to_left" depart="198" departLane="random" departSpeed="10" />
    <vehicle id="left_uturn_50" type="standard_car" route="left_uturn" depart="208" departLane="random" departSpeed="10" />
    <vehicle id="down_to_right_51" type="standard_car" route="down_to_right" depart="211" departLane="random" departSpeed="10" />
    <vehicle id="down_uturn_52" type="standard_car" route="down_uturn" depart="213" departLane="random" departSpeed="10" />
    <vehicle id="down_uturn_53" type="standard_car" route="down_uturn" depart="217" departLane="random" departSpeed="10" />
    <vehicle id="down_uturn_54" type="standard_car" route="down_uturn" depart="219" departLane="random" departSpeed="10" />
    <vehicle id="left_to_right_55" type="standard_car" route="left_to_right" depart="220" departLane="random" departSpeed="10" />
    <vehicle id="left_to_right_56" type="standard_car" route="left_to_right" depart="221" departLane="random" departSpeed="10" />
    <vehicle id="down_to_right_57" type="standard_car" route="down_to_right" depart="223" departLane="random" departSpeed="10" />
    <vehicle id="right_uturn_58" type="standard_car" route="right_uturn" depart="223" departLane="random" departSpeed="10" />
    <vehicle id="right_to_left_59" type="standard_car" route="right_to_left" depart="224" departLane="random" departSpeed="10" />
    <vehicle id="down_to_right_60" type="standard_car" route="down_to_right" depart="225" departLane="random" departSpeed="10" />
    <vehicle id="down_to_right_61" type="standard_car" route="down_to_right" depart="225" departLane="random" departSpeed="10" />
    <vehicle id="down_to_right_62" type="standard_car" route="down_to_right" depart="225" departLane="random" departSpeed="10" />
    <vehicle id="down_to_right_63" type="standard_car" route="down_to_right" depart="229" departLane="random" departSpeed="10" />
    <vehicle id="down_to_left_64" type="standard_car" route="down_to_left" depart="234" departLane="random" departSpeed="10" />
    <vehicle id="right_to_left_65" type="standard_car" route="right_to_left" depart="234" departLane="random" departSpeed="10" />
    <vehicle id="down_to_left_66" type="standard_car" route="down_to_left" depart="236" departLane="random" departSpeed="10" />
    <vehicle id="down_to_left_67" type="standard_car" route="down_to_left" depart="240" departLane="random" departSpeed="10" />
    <vehicle id="left_uturn_68" type="standard_car" route="left_uturn" depart="241" departLane="random" departSpeed="10" />
    <vehicle id="right_uturn_69" type="standard_car" route="right_uturn" depart="241" departLane="random" departSpeed="10" />
    <vehicle id="left_uturn_70" type="standard_car" route="left_uturn" depart="242" departLane="random" departSpeed="10" />
    <vehicle id="left_to_right_71" type="standard_car" route="left_to_right" depart="243" departLane="random" departSpeed="10" />
    <vehicle id="down_to_right_72" type="standard_car" route="down_to_right" depart="246" departLane="random" departSpeed="10" />
    <vehicle id="down_uturn_73" type="standard_car" route="down_uturn" depart="247" departLane="random" departSpeed="10" />
    <vehicle id="down_to_left_74" type="standard_car" route="down_to_left" depart="252" departLane="random" departSpeed="10" />
    <vehicle id="left_to_right_75" type="standard_car" route="left_to_right" depart="255" departLane="random" departSpeed="10" />
    <vehicle id="down_to_right_76" type="standard_car" route="down_to_right" depart="256" departLane="random" departSpeed="10" />
    <vehicle id="down_uturn_77" type="standard_car" route="down_uturn" depart="256" departLane="random" departSpeed="10" />
    <vehicle id="down_to_right_78" type="standard_car" route="down_to_right" depart="261" departLane="random" departSpeed="10" />
    <vehicle id="down_uturn_79" type="standard_car" route="down_uturn" depart="262" departLane="random" departSpeed="10" />
    <vehicle id="right_to_left_80" type="standard_car" route="right_to_left" depart="263" departLane="random" departSpeed="10" />
    <vehicle id="right_uturn_81" type="standard_car" route="right_uturn" depart="263" departLane="random" departSpeed="10" />
    <vehicle id="left_uturn_82" type="standard_car" route="left_uturn" depart="263" departLane="random" departSpeed="10" />
    <vehicle id="down_to_left_83" type="standard_car" route="down_to_left" depart="273" departLane="random" departSpeed="10" />
    <vehicle id="down_to_left_84" type="standard_car" route="down_to_left" depart="274" departLane="random" departSpeed="10" />
    <vehicle id="down_to_left_85" type="standard_car" route="down_to_left" depart="275" departLane="random" departSpeed="10" />
    <vehicle id="left_to_right_86" type="standard_car" route="left_to_right" depart="279" departLane="random" departSpeed="10" />
    <vehicle id="down_to_right_87" type="standard_car" route="down_to_right" depart="281" departLane="random" departSpeed="10" />
    <vehicle id="down_to_left_88" type="standard_car" route="down_to_left" depart="283" departLane="random" departSpeed="10" />
    <vehicle id="left_to_right_89" type="standard_car" route="left_to_right" depart="285" departLane="random" departSpeed="10" />
    <vehicle id="down_to_left_90" type="standard_car" route="down_to_left" depart="286" departLane="random" departSpeed="10" />
    <vehicle id="down_to_left_91" type="standard_car" route="down_to_left" depart="287" departLane="random" departSpeed="10" />
    <vehicle id="left_to_right_92" type="standard_car" route="left_to_right" depart="289" departLane="random" departSpeed="10" />
    <vehicle id="down_uturn_93" type="standard_car" route="down_uturn" depart="294" departLane="random" departSpeed="10" />
    <vehicle id="right_to_left_94" type="standard_car" route="right_to_left" depart="294" departLane="random" departSpeed="10" />
    <vehicle id="down_uturn_95" type="standard_car" route="down_uturn" depart="294" departLane="random" departSpeed="10" />
    <vehicle id="right_to_left_96" type="standard_car" route="right_to_left" depart="295" departLane="random" departSpeed="10" />
    <vehicle id="down_to_left_97" type="standard_car" route="down_to_left" depart="296" departLane="random" departSpeed="10" />
    <vehicle id="down_to_left_98" type="standard_car" route="down_to_left" depart="298" departLane="random" departSpeed="10" />
    <vehicle id="down_uturn_99" type="standard_car" route="down_uturn" depart="298" departLane="random" departSpeed="10" />
    <vehicle id="left_to_right_100" type="standard_car" route="left_to_right" depart="299" departLane="random" departSpeed="10" />
    <vehicle id="emergency_3" type="emergency" route="down_uturn" depart="300" departLane="random" departSpeed="10" />
    <vehicle id="down_uturn_101" type="standard_car" route="down_uturn" depart="301" departLane="random" departSpeed="10" />
    <vehicle id="down_to_right_102" type="standard_car" route="down_to_right" depart="303" departLane="random" departSpeed="10" />
    <vehicle id="right_to_left_103" type="standard_car" route="right_to_left" depart="304" departLane="random" departSpeed="10" />
    <vehicle id="emergency_4" type="emergency" route="left_uturn" depart="307" departLane="random" departSpeed="10" />
    <vehicle id="left_to_right_104" type="standard_car" route="left_to_right" depart="310" departLane="random" departSpeed="10" />
    <vehicle id="left_uturn_105" type="standard_car" route="left_uturn" depart="311" departLane="random" departSpeed="10" />
    <vehicle id="left_to_right_106" type="standard_car" route="left_to_right" depart="311" departLane="random" departSpeed="10" />
    <vehicle id="down_to_right_107" type="standard_car" route="down_to_right" depart="312" departLane="random" departSpeed="10" />
    <vehicle id="left_to_right_108" type="standard_car" route="left_to_right" depart="313" departLane="random" departSpeed="10" />
    <vehicle id="left_to_right_109" type="standard_car" route="left_to_right" depart="316" departLane="random" departSpeed="10" />
    <vehicle id="right_uturn_110" type="standard_car" route="right_uturn" depart="318" departLane="random" departSpeed="10" />
    <vehicle id="down_to_right_111" type="standard_car" route="down_to_right" depart="318" departLane="random" departSpeed="10" />
    <vehicle id="right_to_left_112" type="standard_car" route="right_to_left" depart="320" departLane="random" departSpeed="10" />
    <vehicle id="down_to_right_113" type="standard_car" route="down_to_right" depart="320" departLane="random" departSpeed="10" />
    <vehicle id="right_to_left_114" type="standard_car" route="right_to_left" depart="322" departLane="random" departSpeed="10" />
    <vehicle id="down_to_left_115" type="standard_car" route="down_to_left" depart="324" departLane="random" departSpeed="10" />
    <vehicle id="down_to_right_116" type="standard_car" route="down_to_right" depart="326" departLane="random" departSpeed="10" />
    <vehicle id="right_to_left_117" type="standard_car" route="right_to_left" depart="330" departLane="random" departSpeed="10" />
    <vehicle id="down_to_left_118" type="standard_car" route="down_to_left" depart="330" departLane="random" departSpeed="10" />
    <vehicle id="down_uturn_119" type="standard_car" route="down_uturn" depart="330" departLane="random" departSpeed="10" />
    <vehicle id="right_to_left_120" type="standard_car" route="right_to_left" depart="330" departLane="random" departSpeed="10" />
    <vehicle id="down_to_left_121" type="standard_car" route="down_to_left" depart="335" departLane="random" departSpeed="10" />
    <vehicle id="down_to_right_122" type="standard_car" route="down_to_right" depart="336" departLane="random" departSpeed="10" />
    <vehicle id="left_to_right_123" type="standard_car" route="left_to_right" depart="336" departLane="random" departSpeed="10" />
    <vehicle id="right_to_left_124" type="standard_car" route="right_to_left" depart="337" departLane="random" departSpeed="10" />
    <vehicle id="right_to_left_125" type="standard_car" route="right_to_left" depart="337" departLane="random" departSpeed="10" />
    <vehicle id="down_to_right_126" type="standard_car" route="down_to_right" depart="337" departLane="random" departSpeed="10" />
    <vehicle id="right_uturn_127" type="standard_car" route="right_uturn" depart="338" departLane="random" departSpeed="10" />
    <vehicle id="emergency_5" type="emergency" route="down_uturn" depart="338" departLane="random" departSpeed="10" />
    <vehicle id="right_to_left_128" type="standard_car" route="right_to_left" depart="341" departLane="random" departSpeed="10" />
    <vehicle id="down_to_right_129" type="standard_car" route="down_to_right" depart="344" departLane="random" departSpeed="10" />
    <vehicle id="left_to_right_130" type="standard_car" route="left_to_right" depart="345" departLane="random" departSpeed="10" />
    <vehicle id="down_to_left_131" type="standard_car" route="down_to_left" depart="350" departLane="random" departSpeed="10" />
    <vehicle id="down_to_right_132" type="standard_car" route="down_to_right" depart="350" departLane="random" departSpeed="10" />
    <vehicle id="down_to_left_133" type="standard_car" route="down_to_left" depart="351" departLane="random" departSpeed="10" />
    <vehicle id="down_to_right_134" type="standard_car" route="down_to_right" depart="353" departLane="random" departSpeed="10" />
    <vehicle id="down_to_left_135" type="standard_car" route="down_to_left" depart="355" departLane="random" departSpeed="10" />
    <vehicle id="down_to_right_136" type="standard_car" route="down_to_right" depart="356" departLane="random" departSpeed="10" />
    <vehicle id="down_uturn_137" type="standard_car" route="down_uturn" depart="358" departLane="random" departSpeed="10" />
    <vehicle id="right_to_left_138" type="standard_car" route="right_to_left" depart="361" departLane="random" departSpeed="10" />
    <vehicle id="down_to_left_139" type="standard_car" route="down_to_left" depart="361" departLane="random" departSpeed="10" />
    <vehicle id="right_to_left_140" type="standard_car" route="right_to_left" depart="362" departLane="random" departSpeed="10" />
    <vehicle id="down_to_left_141" type="standard_car" route="down_to_left" depart="363" departLane="random" departSpeed="10" />
    <vehicle id="left_uturn_142" type="standard_car" route="left_uturn" depart="363" departLane="random" departSpeed="10" />
    <vehicle id="right_to_left_143" type="standard_car" route="right_to_left" depart="363" departLane="random" departSpeed="10" />
    <vehicle id="down_to_right_144" type="standard_car" route="down_to_right" depart="366" departLane="random" departSpeed="10" />
    <vehicle id="right_to_left_145" type="standard_car" route="right_to_left" depart="367" departLane="random" departSpeed="10" />
    <vehicle id="down_to_right_146" type="standard_car" route="down_to_right" depart="369" departLane="random" departSpeed="10" />
    <vehicle id="left_uturn_147" type="standard_car" route="left_uturn" depart="371" departLane="random" departSpeed="10" />
    <vehicle id="emergency_6" type="emergency" route="down_uturn" depart="373" departLane="random" departSpeed="10" />
    <vehicle id="left_to_right_148" type="standard_car" route="left_to_right" depart="376" departLane="random" departSpeed="10" />
    <vehicle id="left_uturn_149" type="standard_car" route="left_uturn" depart="377" departLane="random" departSpeed="10" />
    <vehicle id="down_to_left_150" type="standard_car" route="down_to_left" depart="377" departLane="random" departSpeed="10" />
    <vehicle id="left_uturn_151" type="standard_car" route="left_uturn" depart="378" departLane="random" departSpeed="10" />
    <vehicle id="left_to_right_152" type="standard_car" route="left_to_right" depart="378" departLane="random" departSpeed="10" />
    <vehicle id="left_to_right_153" type="standard_car" route="left_to_right" depart="379" departLane="random" departSpeed="10" />
    <vehicle id="down_to_right_154" type="standard_car" route="down_to_right" depart="379" departLane="random" departSpeed="10" />
    <vehicle id="right_to_left_155" type="standard_car" route="right_to_left" depart="382" departLane="random" departSpeed="10" />
    <vehicle id="left_to_right_156" type="standard_car" route="left_to_right" depart="382" departLane="random" departSpeed="10" />
    <vehicle id="right_uturn_157" type="standard_car" route="right_uturn" depart="383" departLane="random" departSpeed="10" />
    <vehicle id="right_uturn_158" type="standard_car" route="right_uturn" depart="387" departLane="random" departSpeed="10" />
    <vehicle id="left_to_right_159" type="standard_car" route="left_to_right" depart="389" departLane="random" departSpeed="10" />
    <vehicle id="down_uturn_160" type="standard_car" route="down_uturn" depart="392" departLane="random" departSpeed="10" />
    <vehicle id="right_to_left_161" type="standard_car" route="right_to_left" depart="393" departLane="random" departSpeed="10" />
    <vehicle id="down_uturn_162" type="standard_car" route="down_uturn" depart="394" departLane="random" departSpeed="10" />
    <vehicle id="down_uturn_163" type="standard_car" route="down_uturn" depart="396" departLane="random" departSpeed="10" />
    <vehicle id="left_uturn_164" type="standard_car" route="left_uturn" depart="398" departLane="random" departSpeed="10" />
    <vehicle id="right_to_left_165" type="standard_car" route="right_to_left" depart="398" departLane="random" departSpeed="10" />
    <vehicle id="down_uturn_166" type="standard_car" route="down_uturn" depart="399" departLane="random" departSpeed="10" />
    <vehicle id="right_to_left_167" type="standard_car" route="right_to_left" depart="401" departLane="random" departSpeed="10" />
    <vehicle id="down_to_right_168" type="standard_car" route="down_to_right" depart="402" departLane="random" departSpeed="10" />
    <vehicle id="right_uturn_169" type="standard_car" route="right_uturn" depart="402" departLane="random" departSpeed="10" />
    <vehicle id="right_to_left_170" type="standard_car" route="right_to_left" depart="403" departLane="random" departSpeed="10" />
    <vehicle id="right_uturn_171" type="standard_car" route="right_uturn" depart="405" departLane="random" departSpeed="10" />
    <vehicle id="down_to_left_172" type="standard_car" route="down_to_left" depart="406" departLane="random" departSpeed="10" />
    <vehicle id="left_to_right_173" type="standard_car" route="left_to_right" depart="408" departLane="random" departSpeed="10" />
    <vehicle id="left_to_right_174" type="standard_car" route="left_to_right" depart="409" departLane="random" departSpeed="10" />
    <vehicle id="down_uturn_175" type="standard_car" route="down_uturn" depart="409" departLane="random" departSpeed="10" />
    <vehicle id="right_to_left_176" type="standard_car" route="right_to_left" depart="411" departLane="random" departSpeed="10" />
    <vehicle id="right_to_left_177" type="standard_car" route="right_to_left" depart="411" departLane="random" departSpeed="10" />
    <vehicle id="down_to_right_178" type="standard_car" route="down_to_right" depart="412" departLane="random" departSpeed="10" />
    <vehicle id="right_uturn_179" type="standard_car" route="right_uturn" depart="413" departLane="random" departSpeed="10" />
    <vehicle id="right_to_left_180" type="standard_car" route="right_to_left" depart="413" departLane="random" departSpeed="10" />
    <vehicle id="left_uturn_181" type="standard_car" route="left_uturn" depart="414" departLane="random" departSpeed="10" />
    <vehicle id="right_to_left_182" type="standard_car" route="right_to_left" depart="415" departLane="random" departSpeed="10" />
    <vehicle id="right_to_left_183" type="standard_car" route="right_to_left" depart="415" departLane="random" departSpeed="10" />
    <vehicle id="down_uturn_184" type="standard_car" route="down_uturn" depart="420" departLane="random" departSpeed="10" />
    <vehicle id="down_uturn_185" type="standard_car" route="down_uturn" depart="421" departLane="random" departSpeed="10" />
    <vehicle id="left_uturn_186" type="standard_car" route="left_uturn" depart="421" departLane="random" departSpeed="10" />
    <vehicle id="down_to_right_187" type="standard_car" route="down_to_right" depart="422" departLane="random" departSpeed="10" />
    <vehicle id="left_uturn_188" type="standard_car" route="left_uturn" depart="422" departLane="random" departSpeed="10" />
    <vehicle id="left_uturn_189" type="standard_car" route="left_uturn" depart="423" departLane="random" departSpeed="10" />
    <vehicle id="left_uturn_190" type="standard_car" route="left_uturn" depart="424" departLane="random" departSpeed="10" />
    <vehicle id="down_to_right_191" type="standard_car" route="down_to_right" depart="425" departLane="random" departSpeed="10" />
    <vehicle id="down_to_right_192" type="standard_car" route="down_to_right" depart="425" departLane="random" departSpeed="10" />
    <vehicle id="down_to_left_193" type="standard_car" route="down_to_left" depart="425" departLane="random" departSpeed="10" />
    <vehicle id="right_uturn_194" type="standard_car" route="right_uturn" depart="426" departLane="random" departSpeed="10" />
    <vehicle id="right_to_left_195" type="standard_car" route="right_to_left" depart="426" departLane="random" departSpeed="10" />
    <vehicle id="down_uturn_196" type="standard_car" route="down_uturn" depart="428" departLane="random" departSpeed="10" />
    <vehicle id="down_to_right_197" type="standard_car" route="down_to_right" depart="429" departLane="random" departSpeed="10" />
    <vehicle id="down_to_left_198" type="standard_car" route="down_to_left" depart="431" departLane="random" departSpeed="10" />
    <vehicle id="left_uturn_199" type="standard_car" route="left_uturn" depart="432" departLane="random" departSpeed="10" />
    <vehicle id="right_to_left_200" type="standard_car" route="right_to_left" depart="432" departLane="random" departSpeed="10" />
    <vehicle id="down_uturn_201" type="standard_car" route="down_uturn" depart="436" departLane="random" departSpeed="10" />
    <vehicle id="right_to_left_202" type="standard_car" route="right_to_left" depart="439" departLane="random" departSpeed="10" />
    <vehicle id="right_to_left_203" type="standard_car" route="right_to_left" depart="439" departLane="random" departSpeed="10" />
    <vehicle id="right_to_left_204" type="standard_car" route="right_to_left" depart="440" departLane="random" departSpeed="10" />
    <vehicle id="down_to_right_205" type="standard_car" route="down_to_right" depart="440" departLane="random" departSpeed="10" />
    <vehicle id="right_to_left_206" type="standard_car" route="right_to_left" depart="440" departLane="random" departSpeed="10" />
    <vehicle id="right_to_left_207" type="standard_car" route="right_to_left" depart="443" departLane="random" departSpeed="10" />
    <vehicle id="down_to_right_208" type="standard_car" route="down_to_right" depart="446" departLane="random" departSpeed="10" />
    <vehicle id="right_to_left_209" type="standard_car" route="right_to_left" depart="446" departLane="random" departSpeed="10" />
    <vehicle id="down_to_right_210" type="standard_car" route="down_to_right" depart="446" departLane="random" departSpeed="10" />
    <vehicle id="left_to_right_211" type="standard_car" route="left_to_right" depart="448" departLane="random" departSpeed="10" />
    <vehicle id="left_uturn_212" type="standard_car" route="left_uturn" depart="448" departLane="random" departSpeed="10" />
    <vehicle id="down_to_left_213" type="standard_car" route="down_to_left" depart="448" departLane="random" departSpeed="10" />
    <vehicle id="right_to_left_214" type="standard_car" route="right_to_left" depart="453" departLane="random" departSpeed="10" />
    <vehicle id="down_uturn_215" type="standard_car" route="down_uturn" depart="453" departLane="random" departSpeed="10" />
    <vehicle id="right_to_left_216" type="standard_car" route="right_to_left" depart="453" departLane="random" departSpeed="10" />
    <vehicle id="right_uturn_217" type="standard_car" route="right_uturn" depart="454" departLane="random" departSpeed="10" />
    <vehicle id="right_to_left_218" type="standard_car" route="right_to_left" depart="455" departLane="random" departSpeed="10" />
    <vehicle id="down_to_left_219" type="standard_car" route="down_to_left" depart="455" departLane="random" departSpeed="10" />
    <vehicle id="down_uturn_220" type="standard_car" route="down_uturn" depart="457" departLane="random" departSpeed="10" />