<routes>
    <vType id="emergency" accel="3.0" decel="6.0" color="1,0,0" 
           maxSpeed="20" sigma="0.5" emergency="true" />
    <vType id="standard_car" accel="1.0" decel="4.5" length="5.0" 
           minGap="2.5" maxSpeed="25" sigma="0.5" />
    <!-- Define routes appropriate for your grid; update as needed -->
    <route id="W_E" edges="..."/>
    <route id="E_W" edges="..."/>
    <route id="N_E" edges="..."/>
    <route id="N_W" edges="..."/>
</routes>
    <vehicle id="E_W_0" type="standard_car" route="E_W" depart="28" departLane="random" departSpeed="10" />
    <vehicle id="W_E_1" type="standard_car" route="W_E" depart="43" departLane="random" departSpeed="10" />
    <vehicle id="E_W_2" type="standard_car" route="E_W" depart="46" departLane="random" departSpeed="10" />
    <vehicle id="N_W_3" type="standard_car" route="N_W" depart="52" departLane="random" departSpeed="10" />
    <vehicle id="W_E_4" type="standard_car" route="W_E" depart="64" departLane="random" departSpeed="10" />
    <vehicle id="N_E_5" type="standard_car" route="N_E" depart="72" departLane="random" departSpeed="10" />
    <vehicle id="N_W_6" type="standard_car" route="N_W" depart="76" departLane="random" departSpeed="10" />
    <vehicle id="N_E_7" type="standard_car" route="N_E" depart="79" departLane="random" departSpeed="10" />
    <vehicle id="N_E_8" type="standard_car" route="N_E" depart="86" departLane="random" departSpeed="10" />
    <vehicle id="W_E_9" type="standard_car" route="W_E" depart="88" departLane="random" departSpeed="10" />
    <vehicle id="W_E_10" type="standard_car" route="W_E" depart="95" departLane="random" departSpeed="10" />
    <vehicle id="W_E_11" type="standard_car" route="W_E" depart="100" departLane="random" departSpeed="10" />
    <vehicle id="N_E_12" type="standard_car" route="N_E" depart="103" departLane="random" departSpeed="10" />
    <vehicle id="N_E_13" type="standard_car" route="N_E" depart="108" departLane="random" departSpeed="10" />
    <vehicle id="W_E_14" type="standard_car" route="W_E" depart="109" departLane="random" departSpeed="10" />
    <vehicle id="N_E_15" type="standard_car" route="N_E" depart="110" departLane="random" departSpeed="10" />
    <vehicle id="E_W_16" type="standard_car" route="E_W" depart="111" departLane="random" departSpeed="10" />
    <vehicle id="W_E_17" type="standard_car" route="W_E" depart="115" departLane="random" departSpeed="10" />
    <vehicle id="N_W_18" type="standard_car" route="N_W" depart="115" departLane="random" departSpeed="10" />
    <vehicle id="E_W_19" type="standard_car" route="E_W" depart="119" departLane="random" departSpeed="10" />
    <vehicle id="N_E_20" type="standard_car" route="N_E" depart="126" departLane="random" departSpeed="10" />
    <vehicle id="N_W_21" type="standard_car" route="N_W" depart="127" departLane="random" departSpeed="10" />
    <vehicle id="E_W_22" type="standard_car" route="E_W" depart="129" departLane="random" departSpeed="10" />
    <vehicle id="E_W_23" type="standard_car" route="E_W" depart="131" departLane="random" departSpeed="10" />
    <vehicle id="W_E_24" type="standard_car" route="W_E" depart="133" departLane="random" departSpeed="10" />
    <vehicle id="W_E_25" type="standard_car" route="W_E" depart="133" departLane="random" departSpeed="10" />
    <vehicle id="E_W_26" type="standard_car" route="E_W" depart="134" departLane="random" departSpeed="10" />
    <vehicle id="E_W_27" type="standard_car" route="E_W" depart="149" departLane="random" departSpeed="10" />
    <vehicle id="W_E_28" type="standard_car" route="W_E" depart="152" departLane="random" departSpeed="10" />
    <vehicle id="N_W_29" type="standard_car" route="N_W" depart="154" departLane="random" departSpeed="10" />
    <vehicle id="N_E_30" type="standard_car" route="N_E" depart="157" departLane="random" departSpeed="10" />
    <vehicle id="E_W_31" type="standard_car" route="E_W" depart="164" departLane="random" departSpeed="10" />
    <vehicle id="W_E_32" type="standard_car" route="W_E" depart="164" departLane="random" departSpeed="10" />
    <vehicle id="W_E_33" type="standard_car" route="W_E" depart="166" departLane="random" departSpeed="10" />
    <vehicle id="E_W_34" type="standard_car" route="E_W" depart="171" departLane="random" departSpeed="10" />
    <vehicle id="W_E_35" type="standard_car" route="W_E" depart="178" departLane="random" departSpeed="10" />
    <vehicle id="N_E_36" type="standard_car" route="N_E" depart="178" departLane="random" departSpeed="10" />
    <vehicle id="N_W_37" type="standard_car" route="N_W" depart="182" departLane="random" departSpeed="10" />
    <vehicle id="W_E_38" type="standard_car" route="W_E" depart="182" departLane="random" departSpeed="10" />
    <vehicle id="W_E_39" type="standard_car" route="W_E" depart="184" departLane="random" departSpeed="10" />
    <vehicle id="W_E_40" type="standard_car" route="W_E" depart="185" departLane="random" departSpeed="10" />
    <vehicle id="W_E_41" type="standard_car" route="W_E" depart="190" departLane="random" departSpeed="10" />
    <vehicle id="E_W_42" type="standard_car" route="E_W" depart="191" departLane="random" departSpeed="10" />
    <vehicle id="E_W_43" type="standard_car" route="E_W" depart="199" departLane="random" departSpeed="10" />
    <vehicle id="N_E_44" type="standard_car" route="N_E" depart="202" departLane="random" departSpeed="10" />
    <vehicle id="W_E_45" type="standard_car" route="W_E" depart="203" departLane="random" departSpeed="10" />
    <vehicle id="E_W_46" type="standard_car" route="E_W" depart="205" departLane="random" departSpeed="10" />
    <vehicle id="E_W_47" type="standard_car" route="E_W" depart="207" departLane="random" departSpeed="10" />
    <vehicle id="W_E_48" type="standard_car" route="W_E" depart="214" departLane="random" departSpeed="10" />
    <vehicle id="N_E_49" type="standard_car" route="N_E" depart="217" departLane="random" departSpeed="10" />
    <vehicle id="W_E_50" type="standard_car" route="W_E" depart="217" departLane="random" departSpeed="10" />
    <vehicle id="E_W_51" type="standard_car" route="E_W" depart="218" departLane="random" departSpeed="10" />
    <vehicle id="N_W_52" type="standard_car" route="N_W" depart="219" departLane="random" departSpeed="10" />
    <vehicle id="W_E_53" type="standard_car" route="W_E" depart="220" departLane="random" departSpeed="10" />
    <vehicle id="N_E_54" type="standard_car" route="N_E" depart="221" departLane="random" departSpeed="10" />
    <vehicle id="N_E_55" type="standard_car" route="N_E" depart="222" departLane="random" departSpeed="10" />
    <vehicle id="E_W_56" type="standard_car" route="E_W" depart="223" departLane="random" departSpeed="10" />
    <vehicle id="N_E_57" type="standard_car" route="N_E" depart="225" departLane="random" departSpeed="10" />
    <vehicle id="W_E_58" type="standard_car" route="W_E" depart="226" departLane="random" departSpeed="10" />
    <vehicle id="E_W_59" type="standard_car" route="E_W" depart="228" departLane="random" departSpeed="10" />
    <vehicle id="E_W_60" type="standard_car" route="E_W" depart="230" departLane="random" departSpeed="10" />
    <vehicle id="N_E_61" type="standard_car" route="N_E" depart="233" departLane="random" departSpeed="10" />
    <vehicle id="E_W_62" type="standard_car" route="E_W" depart="234" departLane="random" departSpeed="10" />
    <vehicle id="E_W_63" type="standard_car" route="E_W" depart="238" departLane="random" departSpeed="10" />
    <vehicle id="N_W_64" type="standard_car" route="N_W" depart="239" departLane="random" departSpeed="10" />
    <vehicle id="W_E_65" type="standard_car" route="W_E" depart="240" departLane="random" departSpeed="10" />
    <vehicle id="N_E_66" type="standard_car" route="N_E" depart="241" departLane="random" departSpeed="10" />
    <vehicle id="W_E_67" type="standard_car" route="W_E" depart="242" departLane="random" departSpeed="10" />
    <vehicle id="W_E_68" type="standard_car" route="W_E" depart="245" departLane="random" departSpeed="10" />
    <vehicle id="W_E_69" type="standard_car" route="W_E" depart="245" departLane="random" departSpeed="10" />
    <vehicle id="E_W_70" type="standard_car" route="E_W" depart="245" departLane="random" departSpeed="10" />
    <vehicle id="E_W_71" type="standard_car" route="E_W" depart="247" departLane="random" departSpeed="10" />
    <vehicle id="E_W_72" type="standard_car" route="E_W" depart="248" departLane="random" departSpeed="10" />
    <vehicle id="W_E_73" type="standard_car" route="W_E" depart="248" departLane="random" departSpeed="10" />
    <vehicle id="W_E_74" type="standard_car" route="W_E" depart="249" departLane="random" departSpeed="10" />
    <vehicle id="N_W_75" type="standard_car" route="N_W" depart="249" departLane="random" departSpeed="10" />
    <vehicle id="E_W_76" type="standard_car" route="E_W" depart="254" departLane="random" departSpeed="10" />
    <vehicle id="E_W_77" type="standard_car" route="E_W" depart="261" departLane="random" departSpeed="10" />
    <vehicle id="N_W_78" type="standard_car" route="N_W" depart="263" departLane="random" departSpeed="10" />
    <vehicle id="N_W_79" type="standard_car" route="N_W" depart="263" departLane="random" departSpeed="10" />
    <vehicle id="E_W_80" type="standard_car" route="E_W" depart="265" departLane="random" departSpeed="10" />
    <vehicle id="N_W_81" type="standard_car" route="N_W" depart="268" departLane="random" departSpeed="10" />
    <vehicle id="N_W_82" type="standard_car" route="N_W" depart="268" departLane="random" departSpeed="10" />
    <vehicle id="N_E_83" type="standard_car" route="N_E" depart="271" departLane="random" departSpeed="10" />
    <vehicle id="N_W_84" type="standard_car" route="N_W" depart="273" departLane="random" departSpeed="10" />
    <vehicle id="W_E_85" type="standard_car" route="W_E" depart="279" departLane="random" departSpeed="10" />
    <vehicle id="N_E_86" type="standard_car" route="N_E" depart="279" departLane="random" departSpeed="10" />
    <vehicle id="E_W_87" type="standard_car" route="E_W" depart="281" departLane="random" departSpeed="10" />
    <vehicle id="E_W_88" type="standard_car" route="E_W" depart="281" departLane="random" departSpeed="10" />
    <vehicle id="W_E_89" type="standard_car" route="W_E" depart="281" departLane="random" departSpeed="10" />
    <vehicle id="E_W_90" type="standard_car" route="E_W" depart="282" departLane="random" departSpeed="10" />
    <vehicle id="W_E_91" type="standard_car" route="W_E" depart="283" departLane="random" departSpeed="10" />
    <vehicle id="E_W_92" type="standard_car" route="E_W" depart="287" departLane="random" departSpeed="10" />
    <vehicle id="E_W_93" type="standard_car" route="E_W" depart="289" departLane="random" departSpeed="10" />
    <vehicle id="E_W_94" type="standard_car" route="E_W" depart="295" departLane="random" departSpeed="10" />
    <vehicle id="E_W_95" type="standard_car" route="E_W" depart="295" departLane="random" departSpeed="10" />
    <vehicle id="N_E_96" type="standard_car" route="N_E" depart="298" departLane="random" departSpeed="10" />
    <vehicle id="W_E_97" type="standard_car" route="W_E" depart="299" departLane="random" departSpeed="10" />
    <vehicle id="W_E_98" type="standard_car" route="W_E" depart="301" departLane="random" departSpeed="10" />
    <vehicle id="E_W_99" type="standard_car" route="E_W" depart="302" departLane="random" departSpeed="10" />
    <vehicle id="E_W_100" type="standard_car" route="E_W" depart="304" departLane="random" departSpeed="10" />
    <vehicle id="N_E_101" type="standard_car" route="N_E" depart="308" departLane="random" departSpeed="10" />
    <vehicle id="N_E_102" type="standard_car" route="N_E" depart="308" departLane="random" departSpeed="10" />
    <vehicle id="W_E_103" type="standard_car" route="W_E" depart="309" departLane="random" departSpeed="10" />
    <vehicle id="N_W_104" type="standard_car" route="N_W" depart="312" departLane="random" departSpeed="10" />
    <vehicle id="N_W_105" type="standard_car" route="N_W" depart="313" departLane="random" departSpeed="10" />
    <vehicle id="W_E_106" type="standard_car" route="W_E" depart="315" departLane="random" departSpeed="10" />
    <vehicle id="N_E_107" type="standard_car" route="N_E" depart="316" departLane="random" departSpeed="10" />
    <vehicle id="E_W_108" type="standard_car" route="E_W" depart="317" departLane="random" departSpeed="10" />
    <vehicle id="E_W_109" type="standard_car" route="E_W" depart="317" departLane="random" departSpeed="10" />
    <vehicle id="N_W_110" type="standard_car" route="N_W" depart="317" departLane="random" departSpeed="10" />
    <vehicle id="W_E_111" type="standard_car" route="W_E" depart="321" departLane="random" departSpeed="10" />
    <vehicle id="N_W_112" type="standard_car" route="N_W" depart="321" departLane="random" departSpeed="10" />
    <vehicle id="E_W_113" type="standard_car" route="E_W" depart="322" departLane="random" departSpeed="10" />
    <vehicle id="E_W_114" type="standard_car" route="E_W" depart="322" departLane="random" departSpeed="10" />
    <vehicle id="W_E_115" type="standard_car" route="W_E" depart="323" departLane="random" departSpeed="10" />
    <vehicle id="N_E_116" type="standard_car" route="N_E" depart="325" departLane="random" departSpeed="10" />
    <vehicle id="N_E_117" type="standard_car" route="N_E" depart="326" departLane="random" departSpeed="10" />
    <vehicle id="W_E_118" type="standard_car" route="W_E" depart="326" departLane="random" departSpeed="10" />
    <vehicle id="E_W_119" type="standard_car" route="E_W" depart="326" departLane="random" departSpeed="10" />
    <vehicle id="W_E_120" type="standard_car" route="W_E" depart="327" departLane="random" departSpeed="10" />
    <vehicle id="N_E_121" type="standard_car" route="N_E" depart="328" departLane="random" departSpeed="10" />
    <vehicle id="N_W_122" type="standard_car" route="N_W" depart="330" departLane="random" departSpeed="10" />
    <vehicle id="E_W_123" type="standard_car" route="E_W" depart="330" departLane="random" departSpeed="10" />
    <vehicle id="N_W_124" type="standard_car" route="N_W" depart="330" departLane="random" departSpeed="10" />
    <vehicle id="W_E_125" type="standard_car" route="W_E" depart="331" departLane="random" departSpeed="10" />
    <vehicle id="E_W_126" type="standard_car" route="E_W" depart="331" departLane="random" departSpeed="10" />
    <vehicle id="W_E_127" type="standard_car" route="W_E" depart="333" departLane="random" departSpeed="10" />
    <vehicle id="E_W_128" type="standard_car" route="E_W" depart="333" departLane="random" departSpeed="10" />
    <vehicle id="W_E_129" type="standard_car" route="W_E" depart="334" departLane="random" departSpeed="10" />
    <vehicle id="W_E_130" type="standard_car" route="W_E" depart="336" departLane="random" departSpeed="10" />
    <vehicle id="W_E_131" type="standard_car" route="W_E" depart="339" departLane="random" departSpeed="10" />
    <vehicle id="N_W_132" type="standard_car" route="N_W" depart="343" departLane="random" departSpeed="10" />
    <vehicle id="E_W_133" type="standard_car" route="E_W" depart="343" departLane="random" departSpeed="10" />
    <vehicle id="N_E_134" type="standard_car" route="N_E" depart="344" departLane="random" departSpeed="10" />
    <vehicle id="N_W_135" type="standard_car" route="N_W" depart="348" departLane="random" departSpeed="10" />
    <vehicle id="N_W_136" type="standard_car" route="N_W" depart="351" departLane="random" departSpeed="10" />
    <vehicle id="N_W_137" type="standard_car" route="N_W" depart="351" departLane="random" departSpeed="10" />
    <vehicle id="E_W_138" type="standard_car" route="E_W" depart="355" departLane="random" departSpeed="10" />
    <vehicle id="N_W_139" type="standard_car" route="N_W" depart="356" departLane="random" departSpeed="10" />
    <vehicle id="E_W_140" type="standard_car" route="E_W" depart="359" departLane="random" departSpeed="10" />
    <vehicle id="N_E_141" type="standard_car" route="N_E" depart="361" departLane="random" departSpeed="10" />
    <vehicle id="E_W_142" type="standard_car" route="E_W" depart="361" departLane="random" departSpeed="10" />
    <vehicle id="N_E_143" type="standard_car" route="N_E" depart="363" departLane="random" departSpeed="10" />
    <vehicle id="N_W_144" type="standard_car" route="N_W" depart="363" departLane="random" departSpeed="10" />
    <vehicle id="W_E_145" type="standard_car" route="W_E" depart="363" departLane="random" departSpeed="10" />
    <vehicle id="E_W_146" type="standard_car" route="E_W" depart="365" departLane="random" departSpeed="10" />
    <vehicle id="W_E_147" type="standard_car" route="W_E" depart="365" departLane="random" departSpeed="10" />
    <vehicle id="W_E_148" type="standard_car" route="W_E" depart="367" departLane="random" departSpeed="10" />
    <vehicle id="W_E_149" type="standard_car" route="W_E" depart="367" departLane="random" departSpeed="10" />
    <vehicle id="N_E_150" type="standard_car" route="N_E" depart="367" departLane="random" departSpeed="10" />
    <vehicle id="N_W_151" type="standard_car" route="N_W" depart="370" departLane="random" departSpeed="10" />
    <vehicle id="E_W_152" type="standard_car" route="E_W" depart="370" departLane="random" departSpeed="10" />
    <vehicle id="W_E_153" type="standard_car" route="W_E" depart="370" departLane="random" departSpeed="10" />
    <vehicle id="E_W_154" type="standard_car" route="E_W" depart="377" departLane="random" departSpeed="10" />
    <vehicle id="W_E_155" type="standard_car" route="W_E" depart="378" departLane="random" departSpeed="10" />
    <vehicle id="W_E_156" type="standard_car" route="W_E" depart="378" departLane="random" departSpeed="10" />
    <vehicle id="W_E_157" type="standard_car" route="W_E" depart="379" departLane="random" departSpeed="10" />
    <vehicle id="E_W_158" type="standard_car" route="E_W" depart="379" departLane="random" departSpeed="10" />
    <vehicle id="N_E_159" type="standard_car" route="N_E" depart="380" departLane="random" departSpeed="10" />
    <vehicle id="N_E_160" type="standard_car" route="N_E" depart="381" departLane="random" departSpeed="10" />
    <vehicle id="E_W_161" type="standard_car" route="E_W" depart="383" departLane="random" departSpeed="10" />
    <vehicle id="N_W_162" type="standard_car" route="N_W" depart="384" departLane="random" departSpeed="10" />
    <vehicle id="E_W_163" type="standard_car" route="E_W" depart="384" departLane="random" departSpeed="10" />
    <vehicle id="N_W_164" type="standard_car" route="N_W" depart="386" departLane="random" departSpeed="10" />
    <vehicle id="E_W_165" type="standard_car" route="E_W" depart="387" departLane="random" departSpeed="10" />
    <vehicle id="E_W_166" type="standard_car" route="E_W" depart="387" departLane="random" departSpeed="10" />
    <vehicle id="N_E_167" type="standard_car" route="N_E" depart="388" departLane="random" departSpeed="10" />
    <vehicle id="N_W_168" type="standard_car" route="N_W" depart="389" departLane="random" departSpeed="10" />
    <vehicle id="N_E_169" type="standard_car" route="N_E" depart="390" departLane="random" departSpeed="10" />
    <vehicle id="E_W_170" type="standard_car" route="E_W" depart="390" departLane="random" departSpeed="10" />
    <vehicle id="E_W_171" type="standard_car" route="E_W" depart="390" departLane="random" departSpeed="10" />
    <vehicle id="E_W_172" type="standard_car" route="E_W" depart="391" departLane="random" departSpeed="10" />
    <vehicle id="N_W_173" type="standard_car" route="N_W" depart="393" departLane="random" departSpeed="10" />
    <vehicle id="N_E_174" type="standard_car" route="N_E" depart="394" departLane="random" departSpeed="10" />
    <vehicle id="N_E_175" type="standard_car" route="N_E" depart="394" departLane="random" departSpeed="10" />
    <vehicle id="W_E_176" type="standard_car" route="W_E" depart="394" departLane="random" departSpeed="10" />
    <vehicle id="N_W_177" type="standard_car" route="N_W" depart="396" departLane="random" departSpeed="10" />
    <vehicle id="E_W_178" type="standard_car" route="E_W" depart="397" departLane="random" departSpeed="10" />
    <vehicle id="W_E_179" type="standard_car" route="W_E" depart="397" departLane="random" departSpeed="10" />
    <vehicle id="W_E_180" type="standard_car" route="W_E" depart="397" departLane="random" departSpeed="10" />
    <vehicle id="N_E_181" type="standard_car" route="N_E" depart="402" departLane="random" departSpeed="10" />
    <vehicle id="N_E_182" type="standard_car" route="N_E" depart="403" departLane="random" departSpeed="10" />
    <vehicle id="E_W_183" type="standard_car" route="E_W" depart="404" departLane="random" departSpeed="10" />
    <vehicle id="E_W_184" type="standard_car" route="E_W" depart="409" departLane="random" departSpeed="10" />
    <vehicle id="N_W_185" type="standard_car" route="N_W" depart="411" departLane="random" departSpeed="10" />
    <vehicle id="W_E_186" type="standard_car" route="W_E" depart="411" departLane="random" departSpeed="10" />
    <vehicle id="W_E_187" type="standard_car" route="W_E" depart="412" departLane="random" departSpeed="10" />
    <vehicle id="N_W_188" type="standard_car" route="N_W" depart="412" departLane="random" departSpeed="10" />
    <vehicle id="N_E_189" type="standard_car" route="N_E" depart="415" departLane="random" departSpeed="10" />
    <vehicle id="N_W_190" type="standard_car" route="N_W" depart="415" departLane="random" departSpeed="10" />
    <vehicle id="W_E_191" type="standard_car" route="W_E" depart="419" departLane="random" departSpeed="10" />
    <vehicle id="W_E_192" type="standard_car" route="W_E" depart="421" departLane="random" departSpeed="10" />
    <vehicle id="W_E_193" type="standard_car" route="W_E" depart="421" departLane="random" departSpeed="10" />
    <vehicle id="E_W_194" type="standard_car" route="E_W" depart="421" departLane="random" departSpeed="10" />
    <vehicle id="E_W_195" type="standard_car" route="E_W" depart="422" departLane="random" departSpeed="10" />
    <vehicle id="E_W_196" type="standard_car" route="E_W" depart="422" departLane="random" departSpeed="10" />
    <vehicle id="W_E_197" type="standard_car" route="W_E" depart="425" departLane="random" departSpeed="10" />
    <vehicle id="E_W_198" type="standard_car" route="E_W" depart="425" departLane="random" departSpeed="10" />
    <vehicle id="E_W_199" type="standard_car" route="E_W" depart="425" departLane="random" departSpeed="10" />
    <vehicle id="N_W_200" type="standard_car" route="N_W" depart="425" departLane="random" departSpeed="10" />
    <vehicle id="N_W_201" type="standard_car" route="N_W" depart="425" departLane="random" departSpeed="10" />
    <vehicle id="N_W_202" type="standard_car" route="N_W" depart="427" departLane="random" departSpeed="10" />
    <vehicle id="N_E_203" type="standard_car" route="N_E" depart="427" departLane="random" departSpeed="10" />
    <vehicle id="N_W_204" type="standard_car" route="N_W" depart="428" departLane="random" departSpeed="10" />
    <vehicle id="N_E_205" type="standard_car" route="N_E" depart="428" departLane="random" departSpeed="10" />
    <vehicle id="W_E_206" type="standard_car" route="W_E" depart="428" departLane="random" departSpeed="10" />
    <vehicle id="E_W_207" type="standard_car" route="E_W" depart="429" departLane="random" departSpeed="10" />
    <vehicle id="E_W_208" type="standard_car" route="E_W" depart="431" departLane="random" departSpeed="10" />
    <vehicle id="E_W_209" type="standard_car" route="E_W" depart="431" departLane="random" departSpeed="10" />
    <vehicle id="W_E_210" type="standard_car" route="W_E" depart="432" departLane="random" departSpeed="10" />
    <vehicle id="W_E_211" type="standard_car" route="W_E" depart="433" departLane="random" departSpeed="10" />
    <vehicle id="N_W_212" type="standard_car" route="N_W" depart="434" departLane="random" departSpeed="10" />
    <vehicle id="E_W_213" type="standard_car" route="E_W" depart="435" departLane="random" departSpeed="10" />
    <vehicle id="E_W_214" type="standard_car" route="E_W" depart="438" departLane="random" departSpeed="10" />
    <vehicle id="W_E_215" type="standard_car" route="W_E" depart="438" departLane="random" departSpeed="10" />
    <vehicle id="N_E_216" type="standard_car" route="N_E" depart="439" departLane="random" departSpeed="10" />
    <vehicle id="W_E_217" type="standard_car" route="W_E" depart="439" departLane="random" departSpeed="10" />
    <vehicle id="W_E_218" type="standard_car" route="W_E" depart="440" departLane="random" departSpeed="10" />
    <vehicle id="E_W_219" type="standard_car" route="E_W" depart="440" departLane="random" departSpeed="10" />
    <vehicle id="W_E_220" type="standard_car" route="W_E" depart="441" departLane="random" departSpeed="10" />
    <vehicle id="N_E_221" type="standard_car" route="N_E" depart="441" departLane="random" departSpeed="10" />
    <vehicle id="W_E_222" type="standard_car" route="W_E" depart="442" departLane="random" departSpeed="10" />
    <vehicle id="W_E_223" type="standard_car" route="W_E" depart="444" departLane="random" departSpeed="10" />
    <vehicle id="E_W_224" type="standard_car" route="E_W" depart="444" departLane="random" departSpeed="10" />
    <vehicle id="W_E_225" type="standard_car" route="W_E" depart="446" departLane="random" departSpeed="10" />
    <vehicle id="E_W_226" type="standard_car" route="E_W" depart="447" departLane="random" departSpeed="10" />
    <vehicle id="E_W_227" type="standard_car" route="E_W" depart="449" departLane="random" departSpeed="10" />
    <vehicle id="N_E_228" type="standard_car" route="N_E" depart="451" departLane="random" departSpeed="10" />
    <vehicle id="W_E_229" type="standard_car" route="W_E" depart="454" departLane="random" departSpeed="10" />
    <vehicle id="E_W_230" type="standard_car" route="E_W" depart="455" departLane="random" departSpeed="10" />
    <vehicle id="E_W_231" type="standard_car" route="E_W" depart="456" departLane="random" departSpeed="10" />
    <vehicle id="W_E_232" type="standard_car" route="W_E" depart="456" departLane="random" departSpeed="10" />
    <vehicle id="W_E_233" type="standard_car" route="W_E" depart="457" departLane="random" departSpeed="10" />
    <vehicle id="W_E_234" type="standard_car" route="W_E" depart="463" departLane="random" departSpeed="10" />
    <vehicle id="N_E_235" type="standard_car" route="N_E" depart="464" departLane="random" departSpeed="10" />
    <vehicle id="W_E_236" type="standard_car" route="W_E" depart="464" departLane="random" departSpeed="10" />
    <vehicle id="W_E_237" type="standard_car" route="W_E" depart="465" departLane="random" departSpeed="10" />
    <vehicle id="E_W_238" type="standard_car" route="E_W" depart="466" departLane="random" departSpeed="10" />
    <vehicle id="W_E_239" type="standard_car" route="W_E" depart="467" departLane="random" departSpeed="10" />
    <vehicle id="E_W_240" type="standard_car" route="E_W" depart="467" departLane="random" departSpeed="10" />
    <vehicle id="E_W_241" type="standard_car" route="E_W" depart="467" departLane="random" departSpeed="10" />
    <vehicle id="N_W_242" type="standard_car" route="N_W" depart="469" departLane="random" departSpeed="10" />
    <vehicle id="E_W_243" type="standard_car" route="E_W" depart="470" departLane="random" departSpeed="10" />
    <vehicle id="N_E_244" type="standard_car" route="N_E" depart="470" departLane="random" departSpeed="10" />
    <vehicle id="E_W_245" type="standard_car" route="E_W" depart="474" departLane="random" departSpeed="10" />
    <vehicle id="E_W_246" type="standard_car" route="E_W" depart="476" departLane="random" departSpeed="10" />
    <vehicle id="W_E_247" type="standard_car" route="W_E" depart="476" departLane="random" departSpeed="10" />
    <vehicle id="E_W_248" type="standard_car" route="E_W" depart="477" departLane="random" departSpeed="10" />
    <vehicle id="E_W_249" type="standard_car" route="E_W" depart="478" departLane="random" departSpeed="10" />
    <vehicle id="N_W_250" type="standard_car" route="N_W" depart="479" departLane="random" departSpeed="10" />
    <vehicle id="W_E_251" type="standard_car" route="W_E" depart="479" departLane="random" departSpeed="10" />
    <vehicle id="N_E_252" type="standard_car" route="N_E" depart="480" departLane="random" departSpeed="10" />
    <vehicle id="E_W_253" type="standard_car" route="E_W" depart="481" departLane="random" departSpeed="10" />
    <vehicle id="E_W_254" type="standard_car" route="E_W" depart="483" departLane="random" departSpeed="10" />
    <vehicle id="W_E_255" type="standard_car" route="W_E" depart="483" departLane="random" departSpeed="10" />
    <vehicle id="E_W_256" type="standard_car" route="E_W" depart="484" departLane="random" departSpeed="10" />
    <vehicle id="W_E_257" type="standard_car" route="W_E" depart="484" departLane="random" departSpeed="10" />
    <vehicle id="N_W_258" type="standard_car" route="N_W" depart="485" departLane="random" departSpeed="10" />
    <vehicle id="N_E_259" type="standard_car" route="N_E" depart="485" departLane="random" departSpeed="10" />
    <vehicle id="W_E_260" type="standard_car" route="W_E" depart="485" departLane="random" departSpeed="10" />
    <vehicle id="W_E_261" type="standard_car" route="W_E" depart="486" departLane="random" departSpeed="10" />
    <vehicle id="N_E_262" type="standard_car" route="N_E" depart="487" departLane="random" departSpeed="10" />
    <vehicle id="W_E_263" type="standard_car" route="W_E" depart="487" departLane="random" departSpeed="10" />
    <vehicle id="E_W_264" type="standard_car" route="E_W" depart="488" departLane="random" departSpeed="10" />
    <vehicle id="E_W_265" type="standard_car" route="E_W" depart="488" departLane="random" departSpeed="10" />
    <vehicle id="N_W_266" type="standard_car" route="N_W" depart="488" departLane="random" departSpeed="10" />