<routes>
    <vType id="emergency" accel="3.0" decel="6.0" color="1,0,0" 
           maxSpeed="20" sigma="0.5" emergency="true" />
    <vType id="standard_car" accel="1.0" decel="4.5" length="5.0" 
           minGap="2.5" maxSpeed="25" sigma="0.5" />
    <!-- Define routes appropriate for your grid; update as needed -->
    <route id="W_E" edges="..."/>
    <route id="E_W" edges="..."/>
    <route id="N_E" edges="..."/>
    <route id="N_W" edges="..."/>
</routes>
    <vehicle id="E_W_0" type="standard_car" route="E_W" depart="7" departLane="random" departSpeed="10" />
    <vehicle id="N_E_1" type="standard_car" route="N_E" depart="39" departLane="random" departSpeed="10" />
    <vehicle id="N_E_2" type="standard_car" route="N_E" depart="40" departLane="random" departSpeed="10" />
    <vehicle id="W_E_3" type="standard_car" route="W_E" depart="50" departLane="random" departSpeed="10" />
    <vehicle id="N_E_4" type="standard_car" route="N_E" depart="60" departLane="random" departSpeed="10" />
    <vehicle id="E_W_5" type="standard_car" route="E_W" depart="77" departLane="random" departSpeed="10" />
    <vehicle id="N_W_6" type="standard_car" route="N_W" depart="84" departLane="random" departSpeed="10" />
    <vehicle id="W_E_7" type="standard_car" route="W_E" depart="97" departLane="random" departSpeed="10" />
    <vehicle id="N_W_8" type="standard_car" route="N_W" depart="98" departLane="random" departSpeed="10" />
    <vehicle id="W_E_9" type="standard_car" route="W_E" depart="107" departLane="random" departSpeed="10" />
    <vehicle id="W_E_10" type="standard_car" route="W_E" depart="108" departLane="random" departSpeed="10" />
    <vehicle id="W_E_11" type="standard_car" route="W_E" depart="118" departLane="random" departSpeed="10" />
    <vehicle id="E_W_12" type="standard_car" route="E_W" depart="121" departLane="random" departSpeed="10" />
    <vehicle id="W_E_13" type="standard_car" route="W_E" depart="122" departLane="random" departSpeed="10" />
    <vehicle id="E_W_14" type="standard_car" route="E_W" depart="127" departLane="random" departSpeed="10" />
    <vehicle id="E_W_15" type="standard_car" route="E_W" depart="140" departLane="random" departSpeed="10" />
    <vehicle id="E_W_16" type="standard_car" route="E_W" depart="141" departLane="random" departSpeed="10" />
    <vehicle id="N_W_17" type="standard_car" route="N_W" depart="148" departLane="random" departSpeed="10" />
    <vehicle id="N_E_18" type="standard_car" route="N_E" depart="153" departLane="random" departSpeed="10" />
    <vehicle id="N_W_19" type="standard_car" route="N_W" depart="156" departLane="random" departSpeed="10" />
    <vehicle id="W_E_20" type="standard_car" route="W_E" depart="157" departLane="random" departSpeed="10" />
    <vehicle id="N_E_21" type="standard_car" route="N_E" depart="166" departLane="random" departSpeed="10" />
    <vehicle id="W_E_22" type="standard_car" route="W_E" depart="167" departLane="random" departSpeed="10" />
    <vehicle id="N_W_23" type="standard_car" route="N_W" depart="168" departLane="random" departSpeed="10" />
    <vehicle id="W_E_24" type="standard_car" route="W_E" depart="169" departLane="random" departSpeed="10" />
    <vehicle id="N_E_25" type="standard_car" route="N_E" depart="177" departLane="random" departSpeed="10" />
    <vehicle id="N_E_26" type="standard_car" route="N_E" depart="180" departLane="random" departSpeed="10" />
    <vehicle id="N_W_27" type="standard_car" route="N_W" depart="184" departLane="random" departSpeed="10" />
    <vehicle id="W_E_28" type="standard_car" route="W_E" depart="186" departLane="random" departSpeed="10" />
    <vehicle id="E_W_29" type="standard_car" route="E_W" depart="187" departLane="random" departSpeed="10" />
    <vehicle id="W_E_30" type="standard_car" route="W_E" depart="187" departLane="random" departSpeed="10" />
    <vehicle id="N_E_31" type="standard_car" route="N_E" depart="192" departLane="random" departSpeed="10" />
    <vehicle id="W_E_32" type="standard_car" route="W_E" depart="196" departLane="random" departSpeed="10" />
    <vehicle id="N_E_33" type="standard_car" route="N_E" depart="204" departLane="random" departSpeed="10" />
    <vehicle id="E_W_34" type="standard_car" route="E_W" depart="205" departLane="random" departSpeed="10" />
    <vehicle id="N_W_35" type="standard_car" route="N_W" depart="208" departLane="random" departSpeed="10" />
    <vehicle id="N_W_36" type="standard_car" route="N_W" depart="210" departLane="random" departSpeed="10" />
    <vehicle id="N_E_37" type="standard_car" route="N_E" depart="212" departLane="random" departSpeed="10" />
    <vehicle id="W_E_38" type="standard_car" route="W_E" depart="217" departLane="random" departSpeed="10" />
    <vehicle id="W_E_39" type="standard_car" route="W_E" depart="222" departLane="random" departSpeed="10" />
    <vehicle id="E_W_40" type="standard_car" route="E_W" depart="223" departLane="random" departSpeed="10" />
    <vehicle id="E_W_41" type="standard_car" route="E_W" depart="225" departLane="random" departSpeed="10" />
    <vehicle id="N_W_42" type="standard_car" route="N_W" depart="249" departLane="random" departSpeed="10" />
    <vehicle id="W_E_43" type="standard_car" route="W_E" depart="258" departLane="random" departSpeed="10" />
    <vehicle id="W_E_44" type="standard_car" route="W_E" depart="258" departLane="random" departSpeed="10" />
    <vehicle id="N_E_45" type="standard_car" route="N_E" depart="259" departLane="random" departSpeed="10" />
    <vehicle id="W_E_46" type="standard_car" route="W_E" depart="263" departLane="random" departSpeed="10" />
    <vehicle id="N_E_47" type="standard_car" route="N_E" depart="263" departLane="random" departSpeed="10" />
    <vehicle id="W_E_48" type="standard_car" route="W_E" depart="265" departLane="random" departSpeed="10" />
    <vehicle id="E_W_49" type="standard_car" route="E_W" depart="265" departLane="random" departSpeed="10" />
    <vehicle id="N_W_50" type="standard_car" route="N_W" depart="267" departLane="random" departSpeed="10" />
    <vehicle id="W_E_51" type="standard_car" route="W_E" depart="271" departLane="random" departSpeed="10" />
    <vehicle id="E_W_52" type="standard_car" route="E_W" depart="273" departLane="random" departSpeed="10" />
    <vehicle id="W_E_53" type="standard_car" route="W_E" depart="281" departLane="random" departSpeed="10" />
    <vehicle id="W_E_54" type="standard_car" route="W_E" depart="286" departLane="random" departSpeed="10" />
    <vehicle id="W_E_55" type="standard_car" route="W_E" depart="289" departLane="random" departSpeed="10" />
    <vehicle id="E_W_56" type="standard_car" route="E_W" depart="289" departLane="random" departSpeed="10" />
    <vehicle id="N_E_57" type="standard_car" route="N_E" depart="294" departLane="random" departSpeed="10" />
    <vehicle id="W_E_58" type="standard_car" route="W_E" depart="298" departLane="random" departSpeed="10" />
    <vehicle id="N_W_59" type="standard_car" route="N_W" depart="299" departLane="random" departSpeed="10" />
    <vehicle id="W_E_60" type="standard_car" route="W_E" depart="300" departLane="random" departSpeed="10" />
    <vehicle id="W_E_61" type="standard_car" route="W_E" depart="304" departLane="random" departSpeed="10" />
    <vehicle id="W_E_62" type="standard_car" route="W_E" depart="310" departLane="random" departSpeed="10" />
    <vehicle id="W_E_63" type="standard_car" route="W_E" depart="311" departLane="random" departSpeed="10" />
    <vehicle id="W_E_64" type="standard_car" route="W_E" depart="312" departLane="random" departSpeed="10" />
    <vehicle id="W_E_65" type="standard_car" route="W_E" depart="316" departLane="random" departSpeed="10" />
    <vehicle id="E_W_66" type="standard_car" route="E_W" depart="319" departLane="random" departSpeed="10" />
    <vehicle id="N_E_67" type="standard_car" route="N_E" depart="321" departLane="random" departSpeed="10" />
    <vehicle id="W_E_68" type="standard_car" route="W_E" depart="321" departLane="random" departSpeed="10" />
    <vehicle id="N_E_69" type="standard_car" route="N_E" depart="323" departLane="random" departSpeed="10" />
    <vehicle id="E_W_70" type="standard_car" route="E_W" depart="326" departLane="random" departSpeed="10" />
    <vehicle id="W_E_71" type="standard_car" route="W_E" depart="326" departLane="random" departSpeed="10" />
    <vehicle id="N_E_72" type="standard_car" route="N_E" depart="327" departLane="random" departSpeed="10" />
    <vehicle id="W_E_73" type="standard_car" route="W_E" depart="329" departLane="random" departSpeed="10" />
    <vehicle id="E_W_74" type="standard_car" route="E_W" depart="330" departLane="random" departSpeed="10" />
    <vehicle id="N_W_75" type="standard_car" route="N_W" depart="331" departLane="random" departSpeed="10" />
    <vehicle id="N_W_76" type="standard_car" route="N_W" depart="333" departLane="random" departSpeed="10" />
    <vehicle id="W_E_77" type="standard_car" route="W_E" depart="338" departLane="random" departSpeed="10" />
    <vehicle id="N_E_78" type="standard_car" route="N_E" depart="338" departLane="random" departSpeed="10" />
    <vehicle id="W_E_79" type="standard_car" route="W_E" depart="339" departLane="random" departSpeed="10" />
    <vehicle id="W_E_80" type="standard_car" route="W_E" depart="339" departLane="random" departSpeed="10" />
    <vehicle id="N_W_81" type="standard_car" route="N_W" depart="340" departLane="random" departSpeed="10" />
    <vehicle id="N_W_82" type="standard_car" route="N_W" depart="341" departLane="random" departSpeed="10" />
    <vehicle id="W_E_83" type="standard_car" route="W_E" depart="342" departLane="random" departSpeed="10" />
    <vehicle id="W_E_84" type="standard_car" route="W_E" depart="345" departLane="random" departSpeed="10" />
    <vehicle id="N_W_85" type="standard_car" route="N_W" depart="347" departLane="random" departSpeed="10" />
    <vehicle id="N_E_86" type="standard_car" route="N_E" depart="353" departLane="random" departSpeed="10" />
    <vehicle id="E_W_87" type="standard_car" route="E_W" depart="360" departLane="random" departSpeed="10" />
    <vehicle id="N_W_88" type="standard_car" route="N_W" depart="362" departLane="random" departSpeed="10" />
    <vehicle id="E_W_89" type="standard_car" route="E_W" depart="366" departLane="random" departSpeed="10" />
    <vehicle id="N_W_90" type="standard_car" route="N_W" depart="368" departLane="random" departSpeed="10" />
    <vehicle id="E_W_91" type="standard_car" route="E_W" depart="373" departLane="random" departSpeed="10" />
    <vehicle id="E_W_92" type="standard_car" route="E_W" depart="375" departLane="random" departSpeed="10" />
    <vehicle id="E_W_93" type="standard_car" route="E_W" depart="377" departLane="random" departSpeed="10" />
    <vehicle id="W_E_94" type="standard_car" route="W_E" depart="377" departLane="random" departSpeed="10" />
    <vehicle id="W_E_95" type="standard_car" route="W_E" depart="387" departLane="random" departSpeed="10" />
    <vehicle id="W_E_96" type="standard_car" route="W_E" depart="389" departLane="random" departSpeed="10" />
    <vehicle id="W_E_97" type="standard_car" route="W_E" depart="391" departLane="random" departSpeed="10" />
    <vehicle id="W_E_98" type="standard_car" route="W_E" depart="393" departLane="random" departSpeed="10" />
    <vehicle id="E_W_99" type="standard_car" route="E_W" depart="398" departLane="random" departSpeed="10" />
    <vehicle id="E_W_100" type="standard_car" route="E_W" depart="398" departLane="random" departSpeed="10" />
    <vehicle id="E_W_101" type="standard_car" route="E_W" depart="400" departLane="random" departSpeed="10" />
    <vehicle id="W_E_102" type="standard_car" route="W_E" depart="402" departLane="random" departSpeed="10" />
    <vehicle id="W_E_103" type="standard_car" route="W_E" depart="403" departLane="random" departSpeed="10" />
    <vehicle id="W_E_104" type="standard_car" route="W_E" depart="403" departLane="random" departSpeed="10" />
    <vehicle id="N_W_105" type="standard_car" route="N_W" depart="406" departLane="random" departSpeed="10" />
    <vehicle id="W_E_106" type="standard_car" route="W_E" depart="408" departLane="random" departSpeed="10" />
    <vehicle id="W_E_107" type="standard_car" route="W_E" depart="413" departLane="random" departSpeed="10" />
    <vehicle id="W_E_108" type="standard_car" route="W_E" depart="414" departLane="random" departSpeed="10" />
    <vehicle id="E_W_109" type="standard_car" route="E_W" depart="418" departLane="random" departSpeed="10" />
    <vehicle id="W_E_110" type="standard_car" route="W_E" depart="420" departLane="random" departSpeed="10" />
    <vehicle id="N_W_111" type="standard_car" route="N_W" depart="420" departLane="random" departSpeed="10" />
    <vehicle id="W_E_112" type="standard_car" route="W_E" depart="427" departLane="random" departSpeed="10" />
    <vehicle id="N_E_113" type="standard_car" route="N_E" depart="427" departLane="random" departSpeed="10" />
    <vehicle id="W_E_114" type="standard_car" route="W_E" depart="431" departLane="random" departSpeed="10" />
    <vehicle id="N_E_115" type="standard_car" route="N_E" depart="436" departLane="random" departSpeed="10" />
    <vehicle id="E_W_116" type="standard_car" route="E_W" depart="441" departLane="random" departSpeed="10" />
    <vehicle id="E_W_117" type="standard_car" route="E_W" depart="444" departLane="random" departSpeed="10" />
    <vehicle id="E_W_118" type="standard_car" route="E_W" depart="444" departLane="random" departSpeed="10" />
    <vehicle id="E_W_119" type="standard_car" route="E_W" depart="445" departLane="random" departSpeed="10" />
    <vehicle id="W_E_120" type="standard_car" route="W_E" depart="445" departLane="random" departSpeed="10" />
    <vehicle id="E_W_121" type="standard_car" route="E_W" depart="447" departLane="random" departSpeed="10" />
    <vehicle id="W_E_122" type="standard_car" route="W_E" depart="449" departLane="random" departSpeed="10" />
    <vehicle id="W_E_123" type="standard_car" route="W_E" depart="451" departLane="random" departSpeed="10" />
    <vehicle id="W_E_124" type="standard_car" route="W_E" depart="452" departLane="random" departSpeed="10" />
    <vehicle id="N_W_125" type="standard_car" route="N_W" depart="453" departLane="random" departSpeed="10" />
    <vehicle id="N_E_126" type="standard_car" route="N_E" depart="453" departLane="random" departSpeed="10" />
    <vehicle id="E_W_127" type="standard_car" route="E_W" depart="454" departLane="random" departSpeed="10" />
    <vehicle id="W_E_128" type="standard_car" route="W_E" depart="455" departLane="random" departSpeed="10" />
    <vehicle id="W_E_129" type="standard_car" route="W_E" depart="459" departLane="random" departSpeed="10" />
    <vehicle id="N_E_130" type="standard_car" route="N_E" depart="459" departLane="random" departSpeed="10" />
    <vehicle id="E_W_131" type="standard_car" route="E_W" depart="463" departLane="random" departSpeed="10" />
    <vehicle id="E_W_132" type="standard_car" route="E_W" depart="466" departLane="random" departSpeed="10" />
    <vehicle id="E_W_133" type="standard_car" route="E_W" depart="466" departLane="random" departSpeed="10" />
    <vehicle id="W_E_134" type="standard_car" route="W_E" depart="467" departLane="random" departSpeed="10" />
    <vehicle id="N_W_135" type="standard_car" route="N_W" depart="468" departLane="random" departSpeed="10" />
    <vehicle id="E_W_136" type="standard_car" route="E_W" depart="468" departLane="random" departSpeed="10" />
    <vehicle id="E_W_137" type="standard_car" route="E_W" depart="471" departLane="random" departSpeed="10" />
    <vehicle id="W_E_138" type="standard_car" route="W_E" depart="471" departLane="random" departSpeed="10" />
    <vehicle id="W_E_139" type="standard_car" route="W_E" depart="473" departLane="random" departSpeed="10" />
    <vehicle id="W_E_140" type="standard_car" route="W_E" depart="476" departLane="random" departSpeed="10" />
    <vehicle id="W_E_141" type="standard_car" route="W_E" depart="476" departLane="random" departSpeed="10" />
    <vehicle id="W_E_142" type="standard_car" route="W_E" depart="481" departLane="random" departSpeed="10" />
    <vehicle id="W_E_143" type="standard_car" route="W_E" depart="483" departLane="random" departSpeed="10" />
    <vehicle id="N_W_144" type="standard_car" route="N_W" depart="486" departLane="random" departSpeed="10" />
    <vehicle id="E_W_145" type="standard_car" route="E_W" depart="487" departLane="random" departSpeed="10" />
    <vehicle id="E_W_146" type="standard_car" route="E_W" depart="489" departLane="random" departSpeed="10" />
    <vehicle id="W_E_147" type="standard_car" route="W_E" depart="492" departLane="random" departSpeed="10" />
    <vehicle id="E_W_148" type="standard_car" route="E_W" depart="494" departLane="random" departSpeed="10" />
    <vehicle id="E_W_149" type="standard_car" route="E_W" depart="494" departLane="random" departSpeed="10" />
    <vehicle id="W_E_150" type="standard_car" route="W_E" depart="495" departLane="random" departSpeed="10" />
    <vehicle id="E_W_151" type="standard_car" route="E_W" depart="496" departLane="random" departSpeed="10" />
    <vehicle id="E_W_152" type="standard_car" route="E_W" depart="496" departLane="random" departSpeed="10" />
    <vehicle id="N_W_153" type="standard_car" route="N_W" depart="498" departLane="random" departSpeed="10" />
    <vehicle id="E_W_154" type="standard_car" route="E_W" depart="504" departLane="random" departSpeed="10" />
    <vehicle id="E_W_155" type="standard_car" route="E_W" depart="505" departLane="random" departSpeed="10" />
    <vehicle id="E_W_156" type="standard_car" route="E_W" depart="505" departLane="random" departSpeed="10" />
    <vehicle id="E_W_157" type="standard_car" route="E_W" depart="506" departLane="random" departSpeed="10" />
    <vehicle id="W_E_158" type="standard_car" route="W_E" depart="506" departLane="random" departSpeed="10" />
    <vehicle id="E_W_159" type="standard_car" route="E_W" depart="508" departLane="random" departSpeed="10" />
    <vehicle id="W_E_160" type="standard_car" route="W_E" depart="508" departLane="random" departSpeed="10" />
    <vehicle id="N_W_161" type="standard_car" route="N_W" depart="509" departLane="random" departSpeed="10" />
    <vehicle id="N_W_162" type="standard_car" route="N_W" depart="510" departLane="random" departSpeed="10" />
    <vehicle id="E_W_163" type="standard_car" route="E_W" depart="512" departLane="random" departSpeed="10" />
    <vehicle id="N_W_164" type="standard_car" route="N_W" depart="516" departLane="random" departSpeed="10" />
    <vehicle id="W_E_165" type="standard_car" route="W_E" depart="517" departLane="random" departSpeed="10" />
    <vehicle id="N_W_166" type="standard_car" route="N_W" depart="520" departLane="random" departSpeed="10" />
    <vehicle id="W_E_167" type="standard_car" route="W_E" depart="522" departLane="random" departSpeed="10" />
    <vehicle id="W_E_168" type="standard_car" route="W_E" depart="531" departLane="random" departSpeed="10" />
    <vehicle id="N_E_169" type="standard_car" route="N_E" depart="535" departLane="random" departSpeed="10" />
    <vehicle id="W_E_170" type="standard_car" route="W_E" depart="536" departLane="random" departSpeed="10" />
    <vehicle id="E_W_171" type="standard_car" route="E_W" depart="537" departLane="random" departSpeed="10" />
    <vehicle id="E_W_172" type="standard_car" route="E_W" depart="537" departLane="random" departSpeed="10" />
    <vehicle id="N_E_173" type="standard_car" route="N_E" depart="538" departLane="random" departSpeed="10" />
    <vehicle id="N_W_174" type="standard_car" route="N_W" depart="544" departLane="random" departSpeed="10" />
    <vehicle id="W_E_175" type="standard_car" route="W_E" depart="544" departLane="random" departSpeed="10" />
    <vehicle id="E_W_176" type="standard_car" route="E_W" depart="548" departLane="random" departSpeed="10" />
    <vehicle id="N_E_177" type="standard_car" route="N_E" depart="549" departLane="random" departSpeed="10" />
    <vehicle id="N_W_178" type="standard_car" route="N_W" depart="552" departLane="random" departSpeed="10" />
    <vehicle id="E_W_179" type="standard_car" route="E_W" depart="554" departLane="random" departSpeed="10" />
    <vehicle id="N_E_180" type="standard_car" route="N_E" depart="554" departLane="random" departSpeed="10" />
    <vehicle id="N_E_181" type="standard_car" route="N_E" depart="554" departLane="random" departSpeed="10" />
    <vehicle id="N_E_182" type="standard_car" route="N_E" depart="556" departLane="random" departSpeed="10" />
    <vehicle id="W_E_183" type="standard_car" route="W_E" depart="560" departLane="random" departSpeed="10" />
    <vehicle id="W_E_184" type="standard_car" route="W_E" depart="560" departLane="random" departSpeed="10" />
    <vehicle id="N_E_185" type="standard_car" route="N_E" depart="562" departLane="random" departSpeed="10" />
    <vehicle id="E_W_186" type="standard_car" route="E_W" depart="567" departLane="random" departSpeed="10" />
    <vehicle id="N_W_187" type="standard_car" route="N_W" depart="569" departLane="random" departSpeed="10" />
    <vehicle id="W_E_188" type="standard_car" route="W_E" depart="573" departLane="random" departSpeed="10" />
    <vehicle id="N_W_189" type="standard_car" route="N_W" depart="573" departLane="random" departSpeed="10" />
    <vehicle id="W_E_190" type="standard_car" route="W_E" depart="574" departLane="random" departSpeed="10" />
    <vehicle id="E_W_191" type="standard_car" route="E_W" depart="577" departLane="random" departSpeed="10" />
    <vehicle id="N_W_192" type="standard_car" route="N_W" depart="578" departLane="random" departSpeed="10" />
    <vehicle id="E_W_193" type="standard_car" route="E_W" depart="579" departLane="random" departSpeed="10" />
    <vehicle id="W_E_194" type="standard_car" route="W_E" depart="580" departLane="random" departSpeed="10" />
    <vehicle id="E_W_195" type="standard_car" route="E_W" depart="581" departLane="random" departSpeed="10" />
    <vehicle id="W_E_196" type="standard_car" route="W_E" depart="584" departLane="random" departSpeed="10" />
    <vehicle id="N_W_197" type="standard_car" route="N_W" depart="586" departLane="random" departSpeed="10" />
    <vehicle id="N_E_198" type="standard_car" route="N_E" depart="587" departLane="random" departSpeed="10" />
    <vehicle id="N_E_199" type="standard_car" route="N_E" depart="588" departLane="random" departSpeed="10" />
    <vehicle id="E_W_200" type="standard_car" route="E_W" depart="588" departLane="random" departSpeed="10" />
    <vehicle id="W_E_201" type="standard_car" route="W_E" depart="590" departLane="random" departSpeed="10" />
    <vehicle id="E_W_202" type="standard_car" route="E_W" depart="591" departLane="random" departSpeed="10" />
    <vehicle id="W_E_203" type="standard_car" route="W_E" depart="591" departLane="random" departSpeed="10" />
    <vehicle id="N_E_204" type="standard_car" route="N_E" depart="594" departLane="random" departSpeed="10" />
    <vehicle id="E_W_205" type="standard_car" route="E_W" depart="595" departLane="random" departSpeed="10" />
    <vehicle id="W_E_206" type="standard_car" route="W_E" depart="595" departLane="random" departSpeed="10" />
    <vehicle id="W_E_207" type="standard_car" route="W_E" depart="595" departLane="random" departSpeed="10" />
    <vehicle id="E_W_208" type="standard_car" route="E_W" depart="598" departLane="random" departSpeed="10" />
    <vehicle id="N_E_209" type="standard_car" route="N_E" depart="599" departLane="random" departSpeed="10" />
    <vehicle id="E_W_210" type="standard_car" route="E_W" depart="600" departLane="random" departSpeed="10" />
    <vehicle id="N_W_211" type="standard_car" route="N_W" depart="602" departLane="random" departSpeed="10" />
    <vehicle id="W_E_212" type="standard_car" route="W_E" depart="604" departLane="random" departSpeed="10" />
    <vehicle id="W_E_213" type="standard_car" route="W_E" depart="604" departLane="random" departSpeed="10" />
    <vehicle id="W_E_214" type="standard_car" route="W_E" depart="605" departLane="random" departSpeed="10" />
    <vehicle id="E_W_215" type="standard_car" route="E_W" depart="606" departLane="random" departSpeed="10" />
    <vehicle id="E_W_216" type="standard_car" route="E_W" depart="607" departLane="random" departSpeed="10" />
    <vehicle id="W_E_217" type="standard_car" route="W_E" depart="608" departLane="random" departSpeed="10" />
    <vehicle id="N_E_218" type="standard_car" route="N_E" depart="610" departLane="random" departSpeed="10" />
    <vehicle id="W_E_219" type="standard_car" route="W_E" depart="614" departLane="random" departSpeed="10" />
    <vehicle id="N_E_220" type="standard_car" route="N_E" depart="621" departLane="random" departSpeed="10" />
    <vehicle id="N_E_221" type="standard_car" route="N_E" depart="624" departLane="random" departSpeed="10" />
    <vehicle id="N_E_222" type="standard_car" route="N_E" depart="624" departLane="random" departSpeed="10" />
    <vehicle id="E_W_223" type="standard_car" route="E_W" depart="624" departLane="random" departSpeed="10" />
    <vehicle id="N_W_224" type="standard_car" route="N_W" depart="625" departLane="random" departSpeed="10" />
    <vehicle id="N_E_225" type="standard_car" route="N_E" depart="625" departLane="random" departSpeed="10" />
    <vehicle id="W_E_226" type="standard_car" route="W_E" depart="627" departLane="random" departSpeed="10" />
    <vehicle id="N_W_227" type="standard_car" route="N_W" depart="628" departLane="random" departSpeed="10" />
    <vehicle id="E_W_228" type="standard_car" route="E_W" depart="631" departLane="random" departSpeed="10" />
    <vehicle id="E_W_229" type="standard_car" route="E_W" depart="632" departLane="random" departSpeed="10" />
    <vehicle id="E_W_230" type="standard_car" route="E_W" depart="633" departLane="random" departSpeed="10" />
    <vehicle id="N_E_231" type="standard_car" route="N_E" depart="634" departLane="random" departSpeed="10" />
    <vehicle id="N_W_232" type="standard_car" route="N_W" depart="635" departLane="random" departSpeed="10" />
    <vehicle id="N_W_233" type="standard_car" route="N_W" depart="635" departLane="random" departSpeed="10" />
    <vehicle id="E_W_234" type="standard_car" route="E_W" depart="636" departLane="random" departSpeed="10" />
    <vehicle id="E_W_235" type="standard_car" route="E_W" depart="636" departLane="random" departSpeed="10" />
    <vehicle id="W_E_236" type="standard_car" route="W_E" depart="637" departLane="random" departSpeed="10" />
    <vehicle id="W_E_237" type="standard_car" route="W_E" depart="642" departLane="random" departSpeed="10" />
    <vehicle id="N_E_238" type="standard_car" route="N_E" depart="643" departLane="random" departSpeed="10" />
    <vehicle id="W_E_239" type="standard_car" route="W_E" depart="643" departLane="random" departSpeed="10" />
    <vehicle id="N_E_240" type="standard_car" route="N_E" depart="648" departLane="random" departSpeed="10" />
    <vehicle id="W_E_241" type="standard_car" route="W_E" depart="651" departLane="random" departSpeed="10" />
    <vehicle id="W_E_242" type="standard_car" route="W_E" depart="653" departLane="random" departSpeed="10" />
    <vehicle id="N_E_243" type="standard_car" route="N_E" depart="654" departLane="random" departSpeed="10" />
    <vehicle id="E_W_244" type="standard_car" route="E_W" depart="654" departLane="random" departSpeed="10" />
    <vehicle id="W_E_245" type="standard_car" route="W_E" depart="655" departLane="random" departSpeed="10" />
    <vehicle id="W_E_246" type="standard_car" route="W_E" depart="656" departLane="random" departSpeed="10" />
    <vehicle id="E_W_247" type="standard_car" route="E_W" depart="657" departLane="random" departSpeed="10" />
    <vehicle id="W_E_248" type="standard_car" route="W_E" depart="658" departLane="random" departSpeed="10" />
    <vehicle id="N_E_249" type="standard_car" route="N_E" depart="658" departLane="random" departSpeed="10" />
    <vehicle id="W_E_250" type="standard_car" route="W_E" depart="658" departLane="random" departSpeed="10" />
    <vehicle id="N_W_251" type="standard_car" route="N_W" depart="661" departLane="random" departSpeed="10" />
    <vehicle id="E_W_252" type="standard_car" route="E_W" depart="662" departLane="random" departSpeed="10" />
    <vehicle id="E_W_253" type="standard_car" route="E_W" depart="664" departLane="random" departSpeed="10" />
    <vehicle id="W_E_254" type="standard_car" route="W_E" depart="664" departLane="random" departSpeed="10" />
    <vehicle id="E_W_255" type="standard_car" route="E_W" depart="666" departLane="random" departSpeed="10" />
    <vehicle id="W_E_256" type="standard_car" route="W_E" depart="669" departLane="random" departSpeed="10" />
    <vehicle id="N_E_257" type="standard_car" route="N_E" depart="670" departLane="random" departSpeed="10" />
    <vehicle id="N_E_258" type="standard_car" route="N_E" depart="670" departLane="random" departSpeed="10" />
    <vehicle id="E_W_259" type="standard_car" route="E_W" depart="674" departLane="random" departSpeed="10" />
    <vehicle id="W_E_260" type="standard_car" route="W_E" depart="675" departLane="random" departSpeed="10" />
    <vehicle id="N_W_261" type="standard_car" route="N_W" depart="675" departLane="random" departSpeed="10" />
    <vehicle id="E_W_262" type="standard_car" route="E_W" depart="676" departLane="random" departSpeed="10" />
    <vehicle id="W_E_263" type="standard_car" route="W_E" depart="677" departLane="random" departSpeed="10" />
    <vehicle id="N_E_264" type="standard_car" route="N_E" depart="679" departLane="random" departSpeed="10" />
    <vehicle id="W_E_265" type="standard_car" route="W_E" depart="679" departLane="random" departSpeed="10" />
    <vehicle id="W_E_266" type="standard_car" route="W_E" depart="682" departLane="random" departSpeed="10" />