<routes>
    <vType id="emergency" accel="3.0" decel="6.0" color="1,0,0" 
           maxSpeed="20" sigma="0.5" emergency="true" />
    <vType id="standard_car" accel="1.0" decel="4.5" length="5.0" 
           minGap="2.5" maxSpeed="25" sigma="0.5" />
    <!-- Define routes appropriate for your grid; update as needed -->
    <route id="W_E" edges="..."/>
    <route id="E_W" edges="..."/>
    <route id="N_E" edges="..."/>
    <route id="N_W" edges="..."/>
</routes>
    <vehicle id="E_W_0" type="standard_car" route="E_W" depart="14" departLane="random" departSpeed="10" />
    <vehicle id="W_E_1" type="standard_car" route="W_E" depart="32" departLane="random" departSpeed="10" />
    <vehicle id="N_W_2" type="standard_car" route="N_W" depart="38" departLane="random" departSpeed="10" />
    <vehicle id="N_W_3" type="standard_car" route="N_W" depart="54" departLane="random" departSpeed="10" />
    <vehicle id="N_W_4" type="standard_car" route="N_W" depart="62" departLane="random" departSpeed="10" />
    <vehicle id="N_E_5" type="standard_car" route="N_E" depart="65" departLane="random" departSpeed="10" />
    <vehicle id="E_W_6" type="standard_car" route="E_W" depart="67" departLane="random" departSpeed="10" />
    <vehicle id="N_W_7" type="standard_car" route="N_W" depart="76" departLane="random" departSpeed="10" />
    <vehicle id="W_E_8" type="standard_car" route="W_E" depart="84" departLane="random" departSpeed="10" />
    <vehicle id="W_E_9" type="standard_car" route="W_E" depart="89" departLane="random" departSpeed="10" />
    <vehicle id="W_E_10" type="standard_car" route="W_E" depart="96" departLane="random" departSpeed="10" />
    <vehicle id="N_W_11" type="standard_car" route="N_W" depart="97" departLane="random" departSpeed="10" />
    <vehicle id="N_E_12" type="standard_car" route="N_E" depart="100" departLane="random" departSpeed="10" />
    <vehicle id="E_W_13" type="standard_car" route="E_W" depart="112" departLane="random" departSpeed="10" />
    <vehicle id="W_E_14" type="standard_car" route="W_E" depart="123" departLane="random" departSpeed="10" />
    <vehicle id="W_E_15" type="standard_car" route="W_E" depart="124" departLane="random" departSpeed="10" />
    <vehicle id="E_W_16" type="standard_car" route="E_W" depart="124" departLane="random" departSpeed="10" />
    <vehicle id="N_W_17" type="standard_car" route="N_W" depart="128" departLane="random" departSpeed="10" />
    <vehicle id="N_E_18" type="standard_car" route="N_E" depart="129" departLane="random" departSpeed="10" />
    <vehicle id="W_E_19" type="standard_car" route="W_E" depart="133" departLane="random" departSpeed="10" />
    <vehicle id="N_W_20" type="standard_car" route="N_W" depart="137" departLane="random" departSpeed="10" />
    <vehicle id="W_E_21" type="standard_car" route="W_E" depart="141" departLane="random" departSpeed="10" />
    <vehicle id="W_E_22" type="standard_car" route="W_E" depart="144" departLane="random" departSpeed="10" />
    <vehicle id="E_W_23" type="standard_car" route="E_W" depart="145" departLane="random" departSpeed="10" />
    <vehicle id="E_W_24" type="standard_car" route="E_W" depart="147" departLane="random" departSpeed="10" />
    <vehicle id="N_E_25" type="standard_car" route="N_E" depart="149" departLane="random" departSpeed="10" />
    <vehicle id="E_W_26" type="standard_car" route="E_W" depart="149" departLane="random" departSpeed="10" />
    <vehicle id="N_E_27" type="standard_car" route="N_E" depart="149" departLane="random" departSpeed="10" />
    <vehicle id="W_E_28" type="standard_car" route="W_E" depart="150" departLane="random" departSpeed="10" />
    <vehicle id="W_E_29" type="standard_car" route="W_E" depart="157" departLane="random" departSpeed="10" />
    <vehicle id="N_E_30" type="standard_car" route="N_E" depart="159" departLane="random" departSpeed="10" />
    <vehicle id="N_E_31" type="standard_car" route="N_E" depart="164" departLane="random" departSpeed="10" />
    <vehicle id="W_E_32" type="standard_car" route="W_E" depart="167" departLane="random" departSpeed="10" />
    <vehicle id="N_W_33" type="standard_car" route="N_W" depart="169" departLane="random" departSpeed="10" />
    <vehicle id="W_E_34" type="standard_car" route="W_E" depart="171" departLane="random" departSpeed="10" />
    <vehicle id="W_E_35" type="standard_car" route="W_E" depart="174" departLane="random" departSpeed="10" />
    <vehicle id="E_W_36" type="standard_car" route="E_W" depart="179" departLane="random" departSpeed="10" />
    <vehicle id="W_E_37" type="standard_car" route="W_E" depart="180" departLane="random" departSpeed="10" />
    <vehicle id="E_W_38" type="standard_car" route="E_W" depart="181" departLane="random" departSpeed="10" />
    <vehicle id="N_E_39" type="standard_car" route="N_E" depart="181" departLane="random" departSpeed="10" />
    <vehicle id="E_W_40" type="standard_car" route="E_W" depart="184" departLane="random" departSpeed="10" />
    <vehicle id="N_E_41" type="standard_car" route="N_E" depart="186" departLane="random" departSpeed="10" />
    <vehicle id="E_W_42" type="standard_car" route="E_W" depart="190" departLane="random" departSpeed="10" />
    <vehicle id="W_E_43" type="standard_car" route="W_E" depart="190" departLane="random" departSpeed="10" />
    <vehicle id="W_E_44" type="standard_car" route="W_E" depart="198" departLane="random" departSpeed="10" />
    <vehicle id="W_E_45" type="standard_car" route="W_E" depart="200" departLane="random" departSpeed="10" />
    <vehicle id="N_W_46" type="standard_car" route="N_W" depart="200" departLane="random" departSpeed="10" />
    <vehicle id="W_E_47" type="standard_car" route="W_E" depart="201" departLane="random" departSpeed="10" />
    <vehicle id="W_E_48" type="standard_car" route="W_E" depart="202" departLane="random" departSpeed="10" />
    <vehicle id="N_E_49" type="standard_car" route="N_E" depart="204" departLane="random" departSpeed="10" />
    <vehicle id="E_W_50" type="standard_car" route="E_W" depart="206" departLane="random" departSpeed="10" />
    <vehicle id="W_E_51" type="standard_car" route="W_E" depart="212" departLane="random" departSpeed="10" />
    <vehicle id="E_W_52" type="standard_car" route="E_W" depart="217" departLane="random" departSpeed="10" />
    <vehicle id="N_E_53" type="standard_car" route="N_E" depart="217" departLane="random" departSpeed="10" />
    <vehicle id="E_W_54" type="standard_car" route="E_W" depart="217" departLane="random" departSpeed="10" />
    <vehicle id="W_E_55" type="standard_car" route="W_E" depart="218" departLane="random" departSpeed="10" />
    <vehicle id="N_W_56" type="standard_car" route="N_W" depart="220" departLane="random" departSpeed="10" />
    <vehicle id="E_W_57" type="standard_car" route="E_W" depart="220" departLane="random" departSpeed="10" />
    <vehicle id="N_W_58" type="standard_car" route="N_W" depart="221" departLane="random" departSpeed="10" />
    <vehicle id="N_W_59" type="standard_car" route="N_W" depart="222" departLane="random" departSpeed="10" />
    <vehicle id="N_W_60" type="standard_car" route="N_W" depart="223" departLane="random" departSpeed="10" />
    <vehicle id="W_E_61" type="standard_car" route="W_E" depart="229" departLane="random" departSpeed="10" />
    <vehicle id="E_W_62" type="standard_car" route="E_W" depart="231" departLane="random" departSpeed="10" />
    <vehicle id="E_W_63" type="standard_car" route="E_W" depart="236" departLane="random" departSpeed="10" />
    <vehicle id="N_W_64" type="standard_car" route="N_W" depart="236" departLane="random" departSpeed="10" />
    <vehicle id="N_W_65" type="standard_car" route="N_W" depart="236" departLane="random" departSpeed="10" />
    <vehicle id="W_E_66" type="standard_car" route="W_E" depart="239" departLane="random" departSpeed="10" />
    <vehicle id="W_E_67" type="standard_car" route="W_E" depart="240" departLane="random" departSpeed="10" />
    <vehicle id="E_W_68" type="standard_car" route="E_W" depart="241" departLane="random" departSpeed="10" />
    <vehicle id="W_E_69" type="standard_car" route="W_E" depart="247" departLane="random" departSpeed="10" />
    <vehicle id="E_W_70" type="standard_car" route="E_W" depart="248" departLane="random" departSpeed="10" />
    <vehicle id="W_E_71" type="standard_car" route="W_E" depart="251" departLane="random" departSpeed="10" />
    <vehicle id="E_W_72" type="standard_car" route="E_W" depart="253" departLane="random" departSpeed="10" />
    <vehicle id="E_W_73" type="standard_car" route="E_W" depart="254" departLane="random" departSpeed="10" />
    <vehicle id="E_W_74" type="standard_car" route="E_W" depart="256" departLane="random" departSpeed="10" />
    <vehicle id="E_W_75" type="standard_car" route="E_W" depart="258" departLane="random" departSpeed="10" />
    <vehicle id="W_E_76" type="standard_car" route="W_E" depart="258" departLane="random" departSpeed="10" />
    <vehicle id="N_W_77" type="standard_car" route="N_W" depart="261" departLane="random" departSpeed="10" />
    <vehicle id="W_E_78" type="standard_car" route="W_E" depart="261" departLane="random" departSpeed="10" />
    <vehicle id="N_E_79" type="standard_car" route="N_E" depart="261" departLane="random" departSpeed="10" />
    <vehicle id="N_W_80" type="standard_car" route="N_W" depart="262" departLane="random" departSpeed="10" />
    <vehicle id="E_W_81" type="standard_car" route="E_W" depart="263" departLane="random" departSpeed="10" />
    <vehicle id="E_W_82" type="standard_car" route="E_W" depart="264" departLane="random" departSpeed="10" />
    <vehicle id="W_E_83" type="standard_car" route="W_E" depart="264" departLane="random" departSpeed="10" />
    <vehicle id="E_W_84" type="standard_car" route="E_W" depart="268" departLane="random" departSpeed="10" />
    <vehicle id="N_W_85" type="standard_car" route="N_W" depart="269" departLane="random" departSpeed="10" />
    <vehicle id="E_W_86" type="standard_car" route="E_W" depart="272" departLane="random" departSpeed="10" />
    <vehicle id="W_E_87" type="standard_car" route="W_E" depart="272" departLane="random" departSpeed="10" />
    <vehicle id="E_W_88" type="standard_car" route="E_W" depart="274" departLane="random" departSpeed="10" />
    <vehicle id="E_W_89" type="standard_car" route="E_W" depart="277" departLane="random" departSpeed="10" />
    <vehicle id="E_W_90" type="standard_car" route="E_W" depart="280" departLane="random" departSpeed="10" />
    <vehicle id="E_W_91" type="standard_car" route="E_W" depart="281" departLane="random" departSpeed="10" />
    <vehicle id="W_E_92" type="standard_car" route="W_E" depart="281" departLane="random" departSpeed="10" />
    <vehicle id="W_E_93" type="standard_car" route="W_E" depart="288" departLane="random" departSpeed="10" />
    <vehicle id="N_E_94" type="standard_car" route="N_E" depart="288" departLane="random" departSpeed="10" />
    <vehicle id="N_W_95" type="standard_car" route="N_W" depart="290" departLane="random" departSpeed="10" />
    <vehicle id="W_E_96" type="standard_car" route="W_E" depart="294" departLane="random" departSpeed="10" />
    <vehicle id="W_E_97" type="standard_car" route="W_E" depart="294" departLane="random" departSpeed="10" />
    <vehicle id="E_W_98" type="standard_car" route="E_W" depart="296" departLane="random" departSpeed="10" />
    <vehicle id="E_W_99" type="standard_car" route="E_W" depart="301" departLane="random" departSpeed="10" />
    <vehicle id="E_W_100" type="standard_car" route="E_W" depart="302" departLane="random" departSpeed="10" />
    <vehicle id="E_W_101" type="standard_car" route="E_W" depart="303" departLane="random" departSpeed="10" />
    <vehicle id="W_E_102" type="standard_car" route="W_E" depart="304" departLane="random" departSpeed="10" />
    <vehicle id="E_W_103" type="standard_car" route="E_W" depart="304" departLane="random" departSpeed="10" />
    <vehicle id="W_E_104" type="standard_car" route="W_E" depart="305" departLane="random" departSpeed="10" />
    <vehicle id="W_E_105" type="standard_car" route="W_E" depart="308" departLane="random" departSpeed="10" />
    <vehicle id="E_W_106" type="standard_car" route="E_W" depart="311" departLane="random" departSpeed="10" />
    <vehicle id="E_W_107" type="standard_car" route="E_W" depart="311" departLane="random" departSpeed="10" />
    <vehicle id="W_E_108" type="standard_car" route="W_E" depart="311" departLane="random" departSpeed="10" />
    <vehicle id="E_W_109" type="standard_car" route="E_W" depart="313" departLane="random" departSpeed="10" />
    <vehicle id="N_W_110" type="standard_car" route="N_W" depart="314" departLane="random" departSpeed="10" />
    <vehicle id="W_E_111" type="standard_car" route="W_E" depart="318" departLane="random" departSpeed="10" />
    <vehicle id="N_W_112" type="standard_car" route="N_W" depart="318" departLane="random" departSpeed="10" />
    <vehicle id="E_W_113" type="standard_car" route="E_W" depart="323" departLane="random" departSpeed="10" />
    <vehicle id="E_W_114" type="standard_car" route="E_W" depart="323" departLane="random" departSpeed="10" />
    <vehicle id="E_W_115" type="standard_car" route="E_W" depart="325" departLane="random" departSpeed="10" />
    <vehicle id="W_E_116" type="standard_car" route="W_E" depart="326" departLane="random" departSpeed="10" />
    <vehicle id="W_E_117" type="standard_car" route="W_E" depart="328" departLane="random" departSpeed="10" />
    <vehicle id="N_E_118" type="standard_car" route="N_E" depart="331" departLane="random" departSpeed="10" />
    <vehicle id="W_E_119" type="standard_car" route="W_E" depart="334" departLane="random" departSpeed="10" />
    <vehicle id="W_E_120" type="standard_car" route="W_E" depart="338" departLane="random" departSpeed="10" />
    <vehicle id="W_E_121" type="standard_car" route="W_E" depart="339" departLane="random" departSpeed="10" />
    <vehicle id="W_E_122" type="standard_car" route="W_E" depart="339" departLane="random" departSpeed="10" />
    <vehicle id="E_W_123" type="standard_car" route="E_W" depart="340" departLane="random" departSpeed="10" />
    <vehicle id="E_W_124" type="standard_car" route="E_W" depart="341" departLane="random" departSpeed="10" />
    <vehicle id="W_E_125" type="standard_car" route="W_E" depart="343" departLane="random" departSpeed="10" />
    <vehicle id="W_E_126" type="standard_car" route="W_E" depart="344" departLane="random" departSpeed="10" />
    <vehicle id="E_W_127" type="standard_car" route="E_W" depart="344" departLane="random" departSpeed="10" />
    <vehicle id="E_W_128" type="standard_car" route="E_W" depart="345" departLane="random" departSpeed="10" />
    <vehicle id="N_W_129" type="standard_car" route="N_W" depart="346" departLane="random" departSpeed="10" />
    <vehicle id="E_W_130" type="standard_car" route="E_W" depart="346" departLane="random" departSpeed="10" />
    <vehicle id="N_E_131" type="standard_car" route="N_E" depart="346" departLane="random" departSpeed="10" />
    <vehicle id="N_W_132" type="standard_car" route="N_W" depart="346" departLane="random" departSpeed="10" />
    <vehicle id="N_W_133" type="standard_car" route="N_W" depart="348" departLane="random" departSpeed="10" />
    <vehicle id="N_E_134" type="standard_car" route="N_E" depart="349" departLane="random" departSpeed="10" />
    <vehicle id="E_W_135" type="standard_car" route="E_W" depart="350" departLane="random" departSpeed="10" />
    <vehicle id="N_E_136" type="standard_car" route="N_E" depart="351" departLane="random" departSpeed="10" />
    <vehicle id="N_W_137" type="standard_car" route="N_W" depart="352" departLane="random" departSpeed="10" />
    <vehicle id="W_E_138" type="standard_car" route="W_E" depart="354" departLane="random" departSpeed="10" />
    <vehicle id="N_E_139" type="standard_car" route="N_E" depart="355" departLane="random" departSpeed="10" />
    <vehicle id="E_W_140" type="standard_car" route="E_W" depart="357" departLane="random" departSpeed="10" />
    <vehicle id="E_W_141" type="standard_car" route="E_W" depart="357" departLane="random" departSpeed="10" />
    <vehicle id="E_W_142" type="standard_car" route="E_W" depart="359" departLane="random" departSpeed="10" />
    <vehicle id="N_W_143" type="standard_car" route="N_W" depart="360" departLane="random" departSpeed="10" />
    <vehicle id="E_W_144" type="standard_car" route="E_W" depart="361" departLane="random" departSpeed="10" />
    <vehicle id="E_W_145" type="standard_car" route="E_W" depart="365" departLane="random" departSpeed="10" />
    <vehicle id="W_E_146" type="standard_car" route="W_E" depart="367" departLane="random" departSpeed="10" />
    <vehicle id="E_W_147" type="standard_car" route="E_W" depart="367" departLane="random" departSpeed="10" />
    <vehicle id="W_E_148" type="standard_car" route="W_E" depart="368" departLane="random" departSpeed="10" />
    <vehicle id="E_W_149" type="standard_car" route="E_W" depart="368" departLane="random" departSpeed="10" />
    <vehicle id="W_E_150" type="standard_car" route="W_E" depart="371" departLane="random" departSpeed="10" />
    <vehicle id="N_W_151" type="standard_car" route="N_W" depart="373" departLane="random" departSpeed="10" />
    <vehicle id="W_E_152" type="standard_car" route="W_E" depart="373" departLane="random" departSpeed="10" />
    <vehicle id="E_W_153" type="standard_car" route="E_W" depart="375" departLane="random" departSpeed="10" />
    <vehicle id="E_W_154" type="standard_car" route="E_W" depart="382" departLane="random" departSpeed="10" />
    <vehicle id="W_E_155" type="standard_car" route="W_E" depart="384" departLane="random" departSpeed="10" />
    <vehicle id="W_E_156" type="standard_car" route="W_E" depart="386" departLane="random" departSpeed="10" />
    <vehicle id="N_E_157" type="standard_car" route="N_E" depart="388" departLane="random" departSpeed="10" />
    <vehicle id="N_W_158" type="standard_car" route="N_W" depart="388" departLane="random" departSpeed="10" />
    <vehicle id="E_W_159" type="standard_car" route="E_W" depart="388" departLane="random" departSpeed="10" />
    <vehicle id="E_W_160" type="standard_car" route="E_W" depart="390" departLane="random" departSpeed="10" />
    <vehicle id="W_E_161" type="standard_car" route="W_E" depart="392" departLane="random" departSpeed="10" />
    <vehicle id="W_E_162" type="standard_car" route="W_E" depart="395" departLane="random" departSpeed="10" />
    <vehicle id="N_W_163" type="standard_car" route="N_W" depart="395" departLane="random" departSpeed="10" />
    <vehicle id="W_E_164" type="standard_car" route="W_E" depart="396" departLane="random" departSpeed="10" />
    <vehicle id="E_W_165" type="standard_car" route="E_W" depart="398" departLane="random" departSpeed="10" />
    <vehicle id="W_E_166" type="standard_car" route="W_E" depart="402" departLane="random" departSpeed="10" />
    <vehicle id="W_E_167" type="standard_car" route="W_E" depart="402" departLane="random" departSpeed="10" />
    <vehicle id="E_W_168" type="standard_car" route="E_W" depart="405" departLane="random" departSpeed="10" />
    <vehicle id="E_W_169" type="standard_car" route="E_W" depart="406" departLane="random" departSpeed="10" />
    <vehicle id="E_W_170" type="standard_car" route="E_W" depart="407" departLane="random" departSpeed="10" />
    <vehicle id="E_W_171" type="standard_car" route="E_W" depart="407" departLane="random" departSpeed="10" />
    <vehicle id="E_W_172" type="standard_car" route="E_W" depart="407" departLane="random" departSpeed="10" />
    <vehicle id="W_E_173" type="standard_car" route="W_E" depart="409" departLane="random" departSpeed="10" />
    <vehicle id="W_E_174" type="standard_car" route="W_E" depart="409" departLane="random" departSpeed="10" />
    <vehicle id="W_E_175" type="standard_car" route="W_E" depart="411" departLane="random" departSpeed="10" />
    <vehicle id="E_W_176" type="standard_car" route="E_W" depart="413" departLane="random" departSpeed="10" />
    <vehicle id="N_E_177" type="standard_car" route="N_E" depart="413" departLane="random" departSpeed="10" />
    <vehicle id="E_W_178" type="standard_car" route="E_W" depart="414" departLane="random" departSpeed="10" />
    <vehicle id="N_E_179" type="standard_car" route="N_E" depart="415" departLane="random" departSpeed="10" />
    <vehicle id="W_E_180" type="standard_car" route="W_E" depart="415" departLane="random" departSpeed="10" />
    <vehicle id="W_E_181" type="standard_car" route="W_E" depart="416" departLane="random" departSpeed="10" />
    <vehicle id="W_E_182" type="standard_car" route="W_E" depart="417" departLane="random" departSpeed="10" />
    <vehicle id="E_W_183" type="standard_car" route="E_W" depart="418" departLane="random" departSpeed="10" />
    <vehicle id="N_E_184" type="standard_car" route="N_E" depart="419" departLane="random" departSpeed="10" />
    <vehicle id="W_E_185" type="standard_car" route="W_E" depart="419" departLane="random" departSpeed="10" />
    <vehicle id="W_E_186" type="standard_car" route="W_E" depart="419" departLane="random" departSpeed="10" />
    <vehicle id="W_E_187" type="standard_car" route="W_E" depart="421" departLane="random" departSpeed="10" />
    <vehicle id="N_E_188" type="standard_car" route="N_E" depart="423" departLane="random" departSpeed="10" />
    <vehicle id="E_W_189" type="standard_car" route="E_W" depart="424" departLane="random" departSpeed="10" />
    <vehicle id="E_W_190" type="standard_car" route="E_W" depart="425" departLane="random" departSpeed="10" />
    <vehicle id="E_W_191" type="standard_car" route="E_W" depart="427" departLane="random" departSpeed="10" />
    <vehicle id="W_E_192" type="standard_car" route="W_E" depart="427" departLane="random" departSpeed="10" />
    <vehicle id="E_W_193" type="standard_car" route="E_W" depart="430" departLane="random" departSpeed="10" />
    <vehicle id="W_E_194" type="standard_car" route="W_E" depart="431" departLane="random" departSpeed="10" />
    <vehicle id="N_E_195" type="standard_car" route="N_E" depart="431" departLane="random" departSpeed="10" />
    <vehicle id="E_W_196" type="standard_car" route="E_W" depart="433" departLane="random" departSpeed="10" />
    <vehicle id="E_W_197" type="standard_car" route="E_W" depart="436" departLane="random" departSpeed="10" />
    <vehicle id="N_E_198" type="standard_car" route="N_E" depart="438" departLane="random" departSpeed="10" />
    <vehicle id="W_E_199" type="standard_car" route="W_E" depart="438" departLane="random" departSpeed="10" />
    <vehicle id="N_E_200" type="standard_car" route="N_E" depart="438" departLane="random" departSpeed="10" />
    <vehicle id="W_E_201" type="standard_car" route="W_E" depart="439" departLane="random" departSpeed="10" />
    <vehicle id="W_E_202" type="standard_car" route="W_E" depart="439" departLane="random" departSpeed="10" />
    <vehicle id="N_E_203" type="standard_car" route="N_E" depart="440" departLane="random" departSpeed="10" />
    <vehicle id="W_E_204" type="standard_car" route="W_E" depart="441" departLane="random" departSpeed="10" />
    <vehicle id="W_E_205" type="standard_car" route="W_E" depart="443" departLane="random" departSpeed="10" />
    <vehicle id="E_W_206" type="standard_car" route="E_W" depart="444" departLane="random" departSpeed="10" />
    <vehicle id="E_W_207" type="standard_car" route="E_W" depart="444" departLane="random" departSpeed="10" />
    <vehicle id="E_W_208" type="standard_car" route="E_W" depart="446" departLane="random" departSpeed="10" />
    <vehicle id="W_E_209" type="standard_car" route="W_E" depart="446" departLane="random" departSpeed="10" />
    <vehicle id="W_E_210" type="standard_car" route="W_E" depart="447" departLane="random" departSpeed="10" />
    <vehicle id="N_W_211" type="standard_car" route="N_W" depart="447" departLane="random" departSpeed="10" />
    <vehicle id="N_E_212" type="standard_car" route="N_E" depart="448" departLane="random" departSpeed="10" />
    <vehicle id="E_W_213" type="standard_car" route="E_W" depart="450" departLane="random" departSpeed="10" />
    <vehicle id="N_W_214" type="standard_car" route="N_W" depart="451" departLane="random" departSpeed="10" />
    <vehicle id="E_W_215" type="standard_car" route="E_W" depart="452" departLane="random" departSpeed="10" />
    <vehicle id="N_E_216" type="standard_car" route="N_E" depart="452" departLane="random" departSpeed="10" />
    <vehicle id="W_E_217" type="standard_car" route="W_E" depart="455" departLane="random" departSpeed="10" />
    <vehicle id="E_W_218" type="standard_car" route="E_W" depart="456" departLane="random" departSpeed="10" />
    <vehicle id="W_E_219" type="standard_car" route="W_E" depart="456" departLane="random" departSpeed="10" />
    <vehicle id="W_E_220" type="standard_car" route="W_E" depart="458" departLane="random" departSpeed="10" />
    <vehicle id="W_E_221" type="standard_car" route="W_E" depart="458" departLane="random" departSpeed="10" />
    <vehicle id="W_E_222" type="standard_car" route="W_E" depart="459" departLane="random" departSpeed="10" />
    <vehicle id="W_E_223" type="standard_car" route="W_E" depart="460" departLane="random" departSpeed="10" />
    <vehicle id="W_E_224" type="standard_car" route="W_E" depart="461" departLane="random" departSpeed="10" />
    <vehicle id="W_E_225" type="standard_car" route="W_E" depart="461" departLane="random" departSpeed="10" />
    <vehicle id="N_W_226" type="standard_car" route="N_W" depart="462" departLane="random" departSpeed="10" />
    <vehicle id="E_W_227" type="standard_car" route="E_W" depart="462" departLane="random" departSpeed="10" />
    <vehicle id="N_W_228" type="standard_car" route="N_W" depart="463" departLane="random" departSpeed="10" />
    <vehicle id="E_W_229" type="standard_car" route="E_W" depart="463" departLane="random" departSpeed="10" />
    <vehicle id="N_E_230" type="standard_car" route="N_E" depart="464" departLane="random" departSpeed="10" />
    <vehicle id="E_W_231" type="standard_car" route="E_W" depart="464" departLane="random" departSpeed="10" />
    <vehicle id="W_E_232" type="standard_car" route="W_E" depart="465" departLane="random" departSpeed="10" />
    <vehicle id="W_E_233" type="standard_car" route="W_E" depart="466" departLane="random" departSpeed="10" />
    <vehicle id="W_E_234" type="standard_car" route="W_E" depart="468" departLane="random" departSpeed="10" />
    <vehicle id="W_E_235" type="standard_car" route="W_E" depart="469" departLane="random" departSpeed="10" />
    <vehicle id="N_W_236" type="standard_car" route="N_W" depart="471" departLane="random" departSpeed="10" />
    <vehicle id="E_W_237" type="standard_car" route="E_W" depart="471" departLane="random" departSpeed="10" />
    <vehicle id="N_W_238" type="standard_car" route="N_W" depart="471" departLane="random" departSpeed="10" />
    <vehicle id="W_E_239" type="standard_car" route="W_E" depart="473" departLane="random" departSpeed="10" />
    <vehicle id="N_W_240" type="standard_car" route="N_W" depart="473" departLane="random" departSpeed="10" />
    <vehicle id="N_W_241" type="standard_car" route="N_W" depart="473" departLane="random" departSpeed="10" />
    <vehicle id="N_W_242" type="standard_car" route="N_W" depart="473" departLane="random" departSpeed="10" />
    <vehicle id="W_E_243" type="standard_car" route="W_E" depart="475" departLane="random" departSpeed="10" />
    <vehicle id="N_E_244" type="standard_car" route="N_E" depart="478" departLane="random" departSpeed="10" />
    <vehicle id="N_W_245" type="standard_car" route="N_W" depart="479" departLane="random" departSpeed="10" />
    <vehicle id="N_W_246" type="standard_car" route="N_W" depart="480" departLane="random" departSpeed="10" />
    <vehicle id="E_W_247" type="standard_car" route="E_W" depart="482" departLane="random" departSpeed="10" />
    <vehicle id="N_E_248" type="standard_car" route="N_E" depart="485" departLane="random" departSpeed="10" />
    <vehicle id="W_E_249" type="standard_car" route="W_E" depart="488" departLane="random" departSpeed="10" />
    <vehicle id="E_W_250" type="standard_car" route="E_W" depart="488" departLane="random" departSpeed="10" />
    <vehicle id="N_W_251" type="standard_car" route="N_W" depart="488" departLane="random" departSpeed="10" />
    <vehicle id="W_E_252" type="standard_car" route="W_E" depart="489" departLane="random" departSpeed="10" />
    <vehicle id="W_E_253" type="standard_car" route="W_E" depart="489" departLane="random" departSpeed="10" />
    <vehicle id="N_W_254" type="standard_car" route="N_W" depart="490" departLane="random" departSpeed="10" />
    <vehicle id="E_W_255" type="standard_car" route="E_W" depart="491" departLane="random" departSpeed="10" />
    <vehicle id="E_W_256" type="standard_car" route="E_W" depart="491" departLane="random" departSpeed="10" />
    <vehicle id="E_W_257" type="standard_car" route="E_W" depart="493" departLane="random" departSpeed="10" />
    <vehicle id="W_E_258" type="standard_car" route="W_E" depart="494" departLane="random" departSpeed="10" />
    <vehicle id="E_W_259" type="standard_car" route="E_W" depart="496" departLane="random" departSpeed="10" />
    <vehicle id="N_E_260" type="standard_car" route="N_E" depart="496" departLane="random" departSpeed="10" />
    <vehicle id="N_E_261" type="standard_car" route="N_E" depart="496" departLane="random" departSpeed="10" />
    <vehicle id="E_W_262" type="standard_car" route="E_W" depart="497" departLane="random" departSpeed="10" />
    <vehicle id="E_W_263" type="standard_car" route="E_W" depart="500" departLane="random" departSpeed="10" />
    <vehicle id="W_E_264" type="standard_car" route="W_E" depart="503" departLane="random" departSpeed="10" />
    <vehicle id="W_E_265" type="standard_car" route="W_E" depart="503" departLane="random" departSpeed="10" />
    <vehicle id="E_W_266" type="standard_car" route="E_W" depart="504" departLane="random" departSpeed="10" />