<?xml version="1.0" encoding="UTF-8"?>
<configuration>
    <input>
        <net-file value="t_intersection.net.xml"/>
        <route-files value="t_routes.rou.xml"/>
    </input>
    <time>
        <begin value="0"/>
        <end value="3600"/>
    </time>
</configuration>
