<routes>
    <vType id="emergency" accel="3.0" decel="6.0" color="1,0,0" maxSpeed="20" sigma="0.5" emergency="true" />
    <vType id="standard_car" accel="1.0" decel="4.5" length="5.0" minGap="2.5" maxSpeed="25" sigma="0.5" />
    <!-- Define routes based on the new lane naming -->
    <route id="main_W_E" edges="h12_0 h12_1"/>
    <route id="main_E_W" edges="-h11_0 -h11_1"/>
    <route id="side_N_E" edges="-v11_0 -v11_1"/>
    <route id="side_N_W" edges="v12_0 v12_1"/>
</routes>
    <vehicle id="N_W_0" type="standard_car" route="N_W" depart="35" departLane="random" departSpeed="10" />
    <vehicle id="N_E_1" type="standard_car" route="N_E" depart="42" departLane="random" departSpeed="10" />
    <vehicle id="W_E_2" type="standard_car" route="W_E" depart="46" departLane="random" departSpeed="10" />
    <vehicle id="W_E_3" type="standard_car" route="W_E" depart="67" departLane="random" departSpeed="10" />
    <vehicle id="W_E_4" type="standard_car" route="W_E" depart="82" departLane="random" departSpeed="10" />
    <vehicle id="E_W_5" type="standard_car" route="E_W" depart="94" departLane="random" departSpeed="10" />
    <vehicle id="E_W_6" type="standard_car" route="E_W" depart="110" departLane="random" departSpeed="10" />
    <vehicle id="W_E_7" type="standard_car" route="W_E" depart="112" departLane="random" departSpeed="10" />
    <vehicle id="E_W_8" type="standard_car" route="E_W" depart="123" departLane="random" departSpeed="10" />
    <vehicle id="W_E_9" type="standard_car" route="W_E" depart="123" departLane="random" departSpeed="10" />
    <vehicle id="W_E_10" type="standard_car" route="W_E" depart="125" departLane="random" departSpeed="10" />
    <vehicle id="W_E_11" type="standard_car" route="W_E" depart="129" departLane="random" departSpeed="10" />
    <vehicle id="W_E_12" type="standard_car" route="W_E" depart="131" departLane="random" departSpeed="10" />
    <vehicle id="N_W_13" type="standard_car" route="N_W" depart="142" departLane="random" departSpeed="10" />
    <vehicle id="E_W_14" type="standard_car" route="E_W" depart="160" departLane="random" departSpeed="10" />
    <vehicle id="E_W_15" type="standard_car" route="E_W" depart="172" departLane="random" departSpeed="10" />
    <vehicle id="N_E_16" type="standard_car" route="N_E" depart="174" departLane="random" departSpeed="10" />
    <vehicle id="E_W_17" type="standard_car" route="E_W" depart="174" departLane="random" departSpeed="10" />
    <vehicle id="E_W_18" type="standard_car" route="E_W" depart="181" departLane="random" departSpeed="10" />
    <vehicle id="N_E_19" type="standard_car" route="N_E" depart="192" departLane="random" departSpeed="10" />
    <vehicle id="E_W_20" type="standard_car" route="E_W" depart="193" departLane="random" departSpeed="10" />
    <vehicle id="E_W_21" type="standard_car" route="E_W" depart="195" departLane="random" departSpeed="10" />
    <vehicle id="E_W_22" type="standard_car" route="E_W" depart="198" departLane="random" departSpeed="10" />
    <vehicle id="W_E_23" type="standard_car" route="W_E" depart="199" departLane="random" departSpeed="10" />
    <vehicle id="N_W_24" type="standard_car" route="N_W" depart="208" departLane="random" departSpeed="10" />
    <vehicle id="E_W_25" type="standard_car" route="E_W" depart="208" departLane="random" departSpeed="10" />
    <vehicle id="W_E_26" type="standard_car" route="W_E" depart="210" departLane="random" departSpeed="10" />
    <vehicle id="W_E_27" type="standard_car" route="W_E" depart="216" departLane="random" departSpeed="10" />
    <vehicle id="W_E_28" type="standard_car" route="W_E" depart="221" departLane="random" departSpeed="10" />
    <vehicle id="W_E_29" type="standard_car" route="W_E" depart="226" departLane="random" departSpeed="10" />
    <vehicle id="N_W_30" type="standard_car" route="N_W" depart="227" departLane="random" departSpeed="10" />
    <vehicle id="W_E_31" type="standard_car" route="W_E" depart="230" departLane="random" departSpeed="10" />
    <vehicle id="N_W_32" type="standard_car" route="N_W" depart="231" departLane="random" departSpeed="10" />
    <vehicle id="N_W_33" type="standard_car" route="N_W" depart="232" departLane="random" departSpeed="10" />
    <vehicle id="W_E_34" type="standard_car" route="W_E" depart="235" departLane="random" departSpeed="10" />
    <vehicle id="N_E_35" type="standard_car" route="N_E" depart="236" departLane="random" departSpeed="10" />
    <vehicle id="N_E_36" type="standard_car" route="N_E" depart="243" departLane="random" departSpeed="10" />
    <vehicle id="N_W_37" type="standard_car" route="N_W" depart="246" departLane="random" departSpeed="10" />
    <vehicle id="N_E_38" type="standard_car" route="N_E" depart="248" departLane="random" departSpeed="10" />
    <vehicle id="N_W_39" type="standard_car" route="N_W" depart="250" departLane="random" departSpeed="10" />
    <vehicle id="E_W_40" type="standard_car" route="E_W" depart="251" departLane="random" departSpeed="10" />
    <vehicle id="E_W_41" type="standard_car" route="E_W" depart="252" departLane="random" departSpeed="10" />
    <vehicle id="W_E_42" type="standard_car" route="W_E" depart="254" departLane="random" departSpeed="10" />
    <vehicle id="N_W_43" type="standard_car" route="N_W" depart="257" departLane="random" departSpeed="10" />
    <vehicle id="W_E_44" type="standard_car" route="W_E" depart="257" departLane="random" departSpeed="10" />
    <vehicle id="W_E_45" type="standard_car" route="W_E" depart="260" departLane="random" departSpeed="10" />
    <vehicle id="N_W_46" type="standard_car" route="N_W" depart="262" departLane="random" departSpeed="10" />
    <vehicle id="N_W_47" type="standard_car" route="N_W" depart="264" departLane="random" departSpeed="10" />
    <vehicle id="E_W_48" type="standard_car" route="E_W" depart="282" departLane="random" departSpeed="10" />
    <vehicle id="N_W_49" type="standard_car" route="N_W" depart="282" departLane="random" departSpeed="10" />
    <vehicle id="W_E_50" type="standard_car" route="W_E" depart="284" departLane="random" departSpeed="10" />
    <vehicle id="W_E_51" type="standard_car" route="W_E" depart="284" departLane="random" departSpeed="10" />
    <vehicle id="W_E_52" type="standard_car" route="W_E" depart="285" departLane="random" departSpeed="10" />
    <vehicle id="E_W_53" type="standard_car" route="E_W" depart="285" departLane="random" departSpeed="10" />
    <vehicle id="E_W_54" type="standard_car" route="E_W" depart="288" departLane="random" departSpeed="10" />
    <vehicle id="W_E_55" type="standard_car" route="W_E" depart="290" departLane="random" departSpeed="10" />
    <vehicle id="N_E_56" type="standard_car" route="N_E" depart="294" departLane="random" departSpeed="10" />
    <vehicle id="N_W_57" type="standard_car" route="N_W" depart="301" departLane="random" departSpeed="10" />
    <vehicle id="E_W_58" type="standard_car" route="E_W" depart="305" departLane="random" departSpeed="10" />
    <vehicle id="W_E_59" type="standard_car" route="W_E" depart="309" departLane="random" departSpeed="10" />
    <vehicle id="W_E_60" type="standard_car" route="W_E" depart="310" departLane="random" departSpeed="10" />
    <vehicle id="W_E_61" type="standard_car" route="W_E" depart="314" departLane="random" departSpeed="10" />
    <vehicle id="N_E_62" type="standard_car" route="N_E" depart="315" departLane="random" departSpeed="10" />
    <vehicle id="W_E_63" type="standard_car" route="W_E" depart="315" departLane="random" departSpeed="10" />
    <vehicle id="W_E_64" type="standard_car" route="W_E" depart="316" departLane="random" departSpeed="10" />
    <vehicle id="N_E_65" type="standard_car" route="N_E" depart="318" departLane="random" departSpeed="10" />
    <vehicle id="N_W_66" type="standard_car" route="N_W" depart="324" departLane="random" departSpeed="10" />
    <vehicle id="N_E_67" type="standard_car" route="N_E" depart="329" departLane="random" departSpeed="10" />
    <vehicle id="W_E_68" type="standard_car" route="W_E" depart="329" departLane="random" departSpeed="10" />
    <vehicle id="E_W_69" type="standard_car" route="E_W" depart="330" departLane="random" departSpeed="10" />
    <vehicle id="W_E_70" type="standard_car" route="W_E" depart="331" departLane="random" departSpeed="10" />
    <vehicle id="E_W_71" type="standard_car" route="E_W" depart="336" departLane="random" departSpeed="10" />
    <vehicle id="E_W_72" type="standard_car" route="E_W" depart="341" departLane="random" departSpeed="10" />
    <vehicle id="W_E_73" type="standard_car" route="W_E" depart="342" departLane="random" departSpeed="10" />
    <vehicle id="E_W_74" type="standard_car" route="E_W" depart="343" departLane="random" departSpeed="10" />
    <vehicle id="W_E_75" type="standard_car" route="W_E" depart="345" departLane="random" departSpeed="10" />
    <vehicle id="N_W_76" type="standard_car" route="N_W" depart="348" departLane="random" departSpeed="10" />
    <vehicle id="E_W_77" type="standard_car" route="E_W" depart="350" departLane="random" departSpeed="10" />
    <vehicle id="N_W_78" type="standard_car" route="N_W" depart="355" departLane="random" departSpeed="10" />
    <vehicle id="E_W_79" type="standard_car" route="E_W" depart="357" departLane="random" departSpeed="10" />
    <vehicle id="N_E_80" type="standard_car" route="N_E" depart="360" departLane="random" departSpeed="10" />
    <vehicle id="W_E_81" type="standard_car" route="W_E" depart="362" departLane="random" departSpeed="10" />
    <vehicle id="E_W_82" type="standard_car" route="E_W" depart="364" departLane="random" departSpeed="10" />
    <vehicle id="E_W_83" type="standard_car" route="E_W" depart="368" departLane="random" departSpeed="10" />
    <vehicle id="W_E_84" type="standard_car" route="W_E" depart="369" departLane="random" departSpeed="10" />
    <vehicle id="emergency_0" type="emergency" route="N_E" depart="370" departLane="random" departSpeed="10" />
    <vehicle id="E_W_85" type="standard_car" route="E_W" depart="375" departLane="random" departSpeed="10" />
    <vehicle id="E_W_86" type="standard_car" route="E_W" depart="375" departLane="random" departSpeed="10" />
    <vehicle id="N_E_87" type="standard_car" route="N_E" depart="375" departLane="random" departSpeed="10" />
    <vehicle id="N_E_88" type="standard_car" route="N_E" depart="376" departLane="random" departSpeed="10" />
    <vehicle id="N_W_89" type="standard_car" route="N_W" depart="377" departLane="random" departSpeed="10" />
    <vehicle id="W_E_90" type="standard_car" route="W_E" depart="377" departLane="random" departSpeed="10" />
    <vehicle id="E_W_91" type="standard_car" route="E_W" depart="382" departLane="random" departSpeed="10" />
    <vehicle id="E_W_92" type="standard_car" route="E_W" depart="383" departLane="random" departSpeed="10" />
    <vehicle id="N_E_93" type="standard_car" route="N_E" depart="384" departLane="random" departSpeed="10" />
    <vehicle id="W_E_94" type="standard_car" route="W_E" depart="384" departLane="random" departSpeed="10" />
    <vehicle id="E_W_95" type="standard_car" route="E_W" depart="385" departLane="random" departSpeed="10" />
    <vehicle id="W_E_96" type="standard_car" route="W_E" depart="388" departLane="random" departSpeed="10" />
    <vehicle id="E_W_97" type="standard_car" route="E_W" depart="391" departLane="random" departSpeed="10" />
    <vehicle id="W_E_98" type="standard_car" route="W_E" depart="394" departLane="random" departSpeed="10" />
    <vehicle id="W_E_99" type="standard_car" route="W_E" depart="402" departLane="random" departSpeed="10" />
    <vehicle id="N_W_100" type="standard_car" route="N_W" depart="405" departLane="random" departSpeed="10" />
    <vehicle id="W_E_101" type="standard_car" route="W_E" depart="406" departLane="random" departSpeed="10" />
    <vehicle id="N_E_102" type="standard_car" route="N_E" depart="412" departLane="random" departSpeed="10" />
    <vehicle id="E_W_103" type="standard_car" route="E_W" depart="412" departLane="random" departSpeed="10" />
    <vehicle id="W_E_104" type="standard_car" route="W_E" depart="412" departLane="random" departSpeed="10" />
    <vehicle id="W_E_105" type="standard_car" route="W_E" depart="422" departLane="random" departSpeed="10" />
    <vehicle id="E_W_106" type="standard_car" route="E_W" depart="422" departLane="random" departSpeed="10" />
    <vehicle id="E_W_107" type="standard_car" route="E_W" depart="423" departLane="random" departSpeed="10" />
    <vehicle id="W_E_108" type="standard_car" route="W_E" depart="425" departLane="random" departSpeed="10" />
    <vehicle id="E_W_109" type="standard_car" route="E_W" depart="430" departLane="random" departSpeed="10" />
    <vehicle id="N_E_110" type="standard_car" route="N_E" depart="435" departLane="random" departSpeed="10" />
    <vehicle id="E_W_111" type="standard_car" route="E_W" depart="436" departLane="random" departSpeed="10" />
    <vehicle id="N_W_112" type="standard_car" route="N_W" depart="440" departLane="random" departSpeed="10" />
    <vehicle id="E_W_113" type="standard_car" route="E_W" depart="440" departLane="random" departSpeed="10" />
    <vehicle id="E_W_114" type="standard_car" route="E_W" depart="441" departLane="random" departSpeed="10" />
    <vehicle id="E_W_115" type="standard_car" route="E_W" depart="442" departLane="random" departSpeed="10" />
    <vehicle id="E_W_116" type="standard_car" route="E_W" depart="443" departLane="random" departSpeed="10" />
    <vehicle id="N_E_117" type="standard_car" route="N_E" depart="444" departLane="random" departSpeed="10" />
    <vehicle id="E_W_118" type="standard_car" route="E_W" depart="445" departLane="random" departSpeed="10" />
    <vehicle id="W_E_119" type="standard_car" route="W_E" depart="447" departLane="random" departSpeed="10" />
    <vehicle id="N_W_120" type="standard_car" route="N_W" depart="448" departLane="random" departSpeed="10" />
    <vehicle id="E_W_121" type="standard_car" route="E_W" depart="448" departLane="random" departSpeed="10" />
    <vehicle id="E_W_122" type="standard_car" route="E_W" depart="449" departLane="random" departSpeed="10" />
    <vehicle id="E_W_123" type="standard_car" route="E_W" depart="449" departLane="random" departSpeed="10" />
    <vehicle id="W_E_124" type="standard_car" route="W_E" depart="452" departLane="random" departSpeed="10" />
    <vehicle id="N_W_125" type="standard_car" route="N_W" depart="458" departLane="random" departSpeed="10" />
    <vehicle id="E_W_126" type="standard_car" route="E_W" depart="458" departLane="random" departSpeed="10" />
    <vehicle id="W_E_127" type="standard_car" route="W_E" depart="458" departLane="random" departSpeed="10" />
    <vehicle id="N_E_128" type="standard_car" route="N_E" depart="460" departLane="random" departSpeed="10" />
    <vehicle id="E_W_129" type="standard_car" route="E_W" depart="461" departLane="random" departSpeed="10" />
    <vehicle id="W_E_130" type="standard_car" route="W_E" depart="463" departLane="random" departSpeed="10" />
    <vehicle id="E_W_131" type="standard_car" route="E_W" depart="463" departLane="random" departSpeed="10" />
    <vehicle id="E_W_132" type="standard_car" route="E_W" depart="467" departLane="random" departSpeed="10" />
    <vehicle id="N_E_133" type="standard_car" route="N_E" depart="468" departLane="random" departSpeed="10" />
    <vehicle id="N_E_134" type="standard_car" route="N_E" depart="469" departLane="random" departSpeed="10" />
    <vehicle id="N_W_135" type="standard_car" route="N_W" depart="471" departLane="random" departSpeed="10" />
    <vehicle id="E_W_136" type="standard_car" route="E_W" depart="471" departLane="random" departSpeed="10" />
    <vehicle id="E_W_137" type="standard_car" route="E_W" depart="473" departLane="random" departSpeed="10" />
    <vehicle id="E_W_138" type="standard_car" route="E_W" depart="475" departLane="random" departSpeed="10" />
    <vehicle id="E_W_139" type="standard_car" route="E_W" depart="478" departLane="random" departSpeed="10" />
    <vehicle id="E_W_140" type="standard_car" route="E_W" depart="478" departLane="random" departSpeed="10" />
    <vehicle id="W_E_141" type="standard_car" route="W_E" depart="479" departLane="random" departSpeed="10" />
    <vehicle id="W_E_142" type="standard_car" route="W_E" depart="480" departLane="random" departSpeed="10" />
    <vehicle id="N_E_143" type="standard_car" route="N_E" depart="481" departLane="random" departSpeed="10" />
    <vehicle id="W_E_144" type="standard_car" route="W_E" depart="482" departLane="random" departSpeed="10" />
    <vehicle id="W_E_145" type="standard_car" route="W_E" depart="482" departLane="random" departSpeed="10" />
    <vehicle id="N_W_146" type="standard_car" route="N_W" depart="485" departLane="random" departSpeed="10" />
    <vehicle id="W_E_147" type="standard_car" route="W_E" depart="488" departLane="random" departSpeed="10" />
    <vehicle id="E_W_148" type="standard_car" route="E_W" depart="489" departLane="random" departSpeed="10" />
    <vehicle id="E_W_149" type="standard_car" route="E_W" depart="494" departLane="random" departSpeed="10" />
    <vehicle id="E_W_150" type="standard_car" route="E_W" depart="498" departLane="random" departSpeed="10" />
    <vehicle id="W_E_151" type="standard_car" route="W_E" depart="500" departLane="random" departSpeed="10" />
    <vehicle id="N_W_152" type="standard_car" route="N_W" depart="504" departLane="random" departSpeed="10" />
    <vehicle id="N_W_153" type="standard_car" route="N_W" depart="504" departLane="random" departSpeed="10" />
    <vehicle id="E_W_154" type="standard_car" route="E_W" depart="505" departLane="random" departSpeed="10" />
    <vehicle id="E_W_155" type="standard_car" route="E_W" depart="508" departLane="random" departSpeed="10" />
    <vehicle id="E_W_156" type="standard_car" route="E_W" depart="509" departLane="random" departSpeed="10" />
    <vehicle id="W_E_157" type="standard_car" route="W_E" depart="513" departLane="random" departSpeed="10" />
    <vehicle id="W_E_158" type="standard_car" route="W_E" depart="514" departLane="random" departSpeed="10" />
    <vehicle id="W_E_159" type="standard_car" route="W_E" depart="518" departLane="random" departSpeed="10" />
    <vehicle id="N_W_160" type="standard_car" route="N_W" depart="521" departLane="random" departSpeed="10" />
    <vehicle id="E_W_161" type="standard_car" route="E_W" depart="522" departLane="random" departSpeed="10" />
    <vehicle id="W_E_162" type="standard_car" route="W_E" depart="523" departLane="random" departSpeed="10" />
    <vehicle id="W_E_163" type="standard_car" route="W_E" depart="523" departLane="random" departSpeed="10" />
    <vehicle id="N_W_164" type="standard_car" route="N_W" depart="524" departLane="random" departSpeed="10" />
    <vehicle id="W_E_165" type="standard_car" route="W_E" depart="531" departLane="random" departSpeed="10" />
    <vehicle id="W_E_166" type="standard_car" route="W_E" depart="531" departLane="random" departSpeed="10" />
    <vehicle id="W_E_167" type="standard_car" route="W_E" depart="532" departLane="random" departSpeed="10" />
    <vehicle id="E_W_168" type="standard_car" route="E_W" depart="532" departLane="random" departSpeed="10" />
    <vehicle id="E_W_169" type="standard_car" route="E_W" depart="534" departLane="random" departSpeed="10" />
    <vehicle id="N_W_170" type="standard_car" route="N_W" depart="538" departLane="random" departSpeed="10" />
    <vehicle id="W_E_171" type="standard_car" route="W_E" depart="539" departLane="random" departSpeed="10" />
    <vehicle id="W_E_172" type="standard_car" route="W_E" depart="543" departLane="random" departSpeed="10" />
    <vehicle id="N_E_173" type="standard_car" route="N_E" depart="551" departLane="random" departSpeed="10" />
    <vehicle id="E_W_174" type="standard_car" route="E_W" depart="552" departLane="random" departSpeed="10" />
    <vehicle id="N_W_175" type="standard_car" route="N_W" depart="556" departLane="random" departSpeed="10" />
    <vehicle id="E_W_176" type="standard_car" route="E_W" depart="561" departLane="random" departSpeed="10" />
    <vehicle id="N_E_177" type="standard_car" route="N_E" depart="562" departLane="random" departSpeed="10" />
    <vehicle id="N_E_178" type="standard_car" route="N_E" depart="565" departLane="random" departSpeed="10" />
    <vehicle id="N_E_179" type="standard_car" route="N_E" depart="566" departLane="random" departSpeed="10" />
    <vehicle id="E_W_180" type="standard_car" route="E_W" depart="572" departLane="random" departSpeed="10" />
    <vehicle id="E_W_181" type="standard_car" route="E_W" depart="573" departLane="random" departSpeed="10" />
    <vehicle id="E_W_182" type="standard_car" route="E_W" depart="574" departLane="random" departSpeed="10" />
    <vehicle id="N_E_183" type="standard_car" route="N_E" depart="575" departLane="random" departSpeed="10" />
    <vehicle id="E_W_184" type="standard_car" route="E_W" depart="576" departLane="random" departSpeed="10" />
    <vehicle id="E_W_185" type="standard_car" route="E_W" depart="576" departLane="random" departSpeed="10" />
    <vehicle id="N_E_186" type="standard_car" route="N_E" depart="577" departLane="random" departSpeed="10" />
    <vehicle id="W_E_187" type="standard_car" route="W_E" depart="577" departLane="random" departSpeed="10" />
    <vehicle id="N_W_188" type="standard_car" route="N_W" depart="578" departLane="random" departSpeed="10" />
    <vehicle id="N_E_189" type="standard_car" route="N_E" depart="580" departLane="random" departSpeed="10" />
    <vehicle id="E_W_190" type="standard_car" route="E_W" depart="580" departLane="random" departSpeed="10" />
    <vehicle id="E_W_191" type="standard_car" route="E_W" depart="583" departLane="random" departSpeed="10" />
    <vehicle id="W_E_192" type="standard_car" route="W_E" depart="583" departLane="random" departSpeed="10" />
    <vehicle id="N_E_193" type="standard_car" route="N_E" depart="584" departLane="random" departSpeed="10" />
    <vehicle id="W_E_194" type="standard_car" route="W_E" depart="585" departLane="random" departSpeed="10" />
    <vehicle id="E_W_195" type="standard_car" route="E_W" depart="585" departLane="random" departSpeed="10" />
    <vehicle id="E_W_196" type="standard_car" route="E_W" depart="585" departLane="random" departSpeed="10" />
    <vehicle id="E_W_197" type="standard_car" route="E_W" depart="585" departLane="random" departSpeed="10" />
    <vehicle id="W_E_198" type="standard_car" route="W_E" depart="588" departLane="random" departSpeed="10" />
    <vehicle id="W_E_199" type="standard_car" route="W_E" depart="588" departLane="random" departSpeed="10" />
    <vehicle id="W_E_200" type="standard_car" route="W_E" depart="590" departLane="random" departSpeed="10" />
    <vehicle id="E_W_201" type="standard_car" route="E_W" depart="590" departLane="random" departSpeed="10" />
    <vehicle id="W_E_202" type="standard_car" route="W_E" depart="591" departLane="random" departSpeed="10" />
    <vehicle id="W_E_203" type="standard_car" route="W_E" depart="591" departLane="random" departSpeed="10" />
    <vehicle id="N_E_204" type="standard_car" route="N_E" depart="592" departLane="random" departSpeed="10" />
    <vehicle id="N_W_205" type="standard_car" route="N_W" depart="592" departLane="random" departSpeed="10" />
    <vehicle id="E_W_206" type="standard_car" route="E_W" depart="594" departLane="random" departSpeed="10" />
    <vehicle id="N_W_207" type="standard_car" route="N_W" depart="595" departLane="random" departSpeed="10" />
    <vehicle id="W_E_208" type="standard_car" route="W_E" depart="596" departLane="random" departSpeed="10" />
    <vehicle id="W_E_209" type="standard_car" route="W_E" depart="596" departLane="random" departSpeed="10" />
    <vehicle id="W_E_210" type="standard_car" route="W_E" depart="598" departLane="random" departSpeed="10" />
    <vehicle id="N_E_211" type="standard_car" route="N_E" depart="599" departLane="random" departSpeed="10" />
    <vehicle id="E_W_212" type="standard_car" route="E_W" depart="599" departLane="random" departSpeed="10" />
    <vehicle id="E_W_213" type="standard_car" route="E_W" depart="600" departLane="random" departSpeed="10" />
    <vehicle id="E_W_214" type="standard_car" route="E_W" depart="602" departLane="random" departSpeed="10" />
    <vehicle id="N_W_215" type="standard_car" route="N_W" depart="604" departLane="random" departSpeed="10" />
    <vehicle id="W_E_216" type="standard_car" route="W_E" depart="605" departLane="random" departSpeed="10" />
    <vehicle id="W_E_217" type="standard_car" route="W_E" depart="606" departLane="random" departSpeed="10" />
    <vehicle id="W_E_218" type="standard_car" route="W_E" depart="606" departLane="random" departSpeed="10" />
    <vehicle id="N_E_219" type="standard_car" route="N_E" depart="606" departLane="random" departSpeed="10" />
    <vehicle id="E_W_220" type="standard_car" route="E_W" depart="607" departLane="random" departSpeed="10" />
    <vehicle id="N_E_221" type="standard_car" route="N_E" depart="607" departLane="random" departSpeed="10" />
    <vehicle id="E_W_222" type="standard_car" route="E_W" depart="609" departLane="random" departSpeed="10" />
    <vehicle id="W_E_223" type="standard_car" route="W_E" depart="611" departLane="random" departSpeed="10" />
    <vehicle id="N_E_224" type="standard_car" route="N_E" depart="613" departLane="random" departSpeed="10" />
    <vehicle id="E_W_225" type="standard_car" route="E_W" depart="614" departLane="random" departSpeed="10" />
    <vehicle id="N_W_226" type="standard_car" route="N_W" depart="614" departLane="random" departSpeed="10" />
    <vehicle id="W_E_227" type="standard_car" route="W_E" depart="616" departLane="random" departSpeed="10" />
    <vehicle id="W_E_228" type="standard_car" route="W_E" depart="616" departLane="random" departSpeed="10" />
    <vehicle id="N_W_229" type="standard_car" route="N_W" depart="616" departLane="random" departSpeed="10" />
    <vehicle id="N_W_230" type="standard_car" route="N_W" depart="619" departLane="random" departSpeed="10" />
    <vehicle id="W_E_231" type="standard_car" route="W_E" depart="621" departLane="random" departSpeed="10" />
    <vehicle id="W_E_232" type="standard_car" route="W_E" depart="621" departLane="random" departSpeed="10" />
    <vehicle id="N_W_233" type="standard_car" route="N_W" depart="621" departLane="random" departSpeed="10" />
    <vehicle id="E_W_234" type="standard_car" route="E_W" depart="622" departLane="random" departSpeed="10" />
    <vehicle id="W_E_235" type="standard_car" route="W_E" depart="623" departLane="random" departSpeed="10" />
    <vehicle id="N_E_236" type="standard_car" route="N_E" depart="626" departLane="random" departSpeed="10" />
    <vehicle id="E_W_237" type="standard_car" route="E_W" depart="631" departLane="random" departSpeed="10" />
    <vehicle id="N_W_238" type="standard_car" route="N_W" depart="631" departLane="random" departSpeed="10" />
    <vehicle id="N_E_239" type="standard_car" route="N_E" depart="631" departLane="random" departSpeed="10" />
    <vehicle id="E_W_240" type="standard_car" route="E_W" depart="631" departLane="random" departSpeed="10" />
    <vehicle id="N_W_241" type="standard_car" route="N_W" depart="632" departLane="random" departSpeed="10" />
    <vehicle id="E_W_242" type="standard_car" route="E_W" depart="632" departLane="random" departSpeed="10" />
    <vehicle id="W_E_243" type="standard_car" route="W_E" depart="633" departLane="random" departSpeed="10" />
    <vehicle id="N_W_244" type="standard_car" route="N_W" depart="634" departLane="random" departSpeed="10" />
    <vehicle id="N_W_245" type="standard_car" route="N_W" depart="636" departLane="random" departSpeed="10" />
    <vehicle id="E_W_246" type="standard_car" route="E_W" depart="636" departLane="random" departSpeed="10" />
    <vehicle id="E_W_247" type="standard_car" route="E_W" depart="636" departLane="random" departSpeed="10" />
    <vehicle id="W_E_248" type="standard_car" route="W_E" depart="636" departLane="random" departSpeed="10" />
    <vehicle id="W_E_249" type="standard_car" route="W_E" depart="636" departLane="random" departSpeed="10" />
    <vehicle id="W_E_250" type="standard_car" route="W_E" depart="637" departLane="random" departSpeed="10" />
    <vehicle id="W_E_251" type="standard_car" route="W_E" depart="638" departLane="random" departSpeed="10" />
    <vehicle id="E_W_252" type="standard_car" route="E_W" depart="639" departLane="random" departSpeed="10" />
    <vehicle id="E_W_253" type="standard_car" route="E_W" depart="639" departLane="random" departSpeed="10" />
    <vehicle id="W_E_254" type="standard_car" route="W_E" depart="640" departLane="random" departSpeed="10" />
    <vehicle id="E_W_255" type="standard_car" route="E_W" depart="640" departLane="random" departSpeed="10" />
    <vehicle id="E_W_256" type="standard_car" route="E_W" depart="640" departLane="random" departSpeed="10" />
    <vehicle id="W_E_257" type="standard_car" route="W_E" depart="644" departLane="random" departSpeed="10" />
    <vehicle id="N_W_258" type="standard_car" route="N_W" depart="644" departLane="random" departSpeed="10" />
    <vehicle id="E_W_259" type="standard_car" route="E_W" depart="644" departLane="random" departSpeed="10" />
    <vehicle id="N_W_260" type="standard_car" route="N_W" depart="650" departLane="random" departSpeed="10" />
    <vehicle id="E_W_261" type="standard_car" route="E_W" depart="654" departLane="random" departSpeed="10" />
    <vehicle id="E_W_262" type="standard_car" route="E_W" depart="658" departLane="random" departSpeed="10" />
    <vehicle id="E_W_263" type="standard_car" route="E_W" depart="662" departLane="random" departSpeed="10" />
    <vehicle id="E_W_264" type="standard_car" route="E_W" depart="664" departLane="random" departSpeed="10" />