<routes>
    <!-- Define emergency vehicle type -->
    <vType id="emergency" accel="3.0" decel="6.0" color="1,0,0"
           maxSpeed="20" sigma="0.5" emergency="true"/>
    <!-- Define standard vehicle type -->
    <vType id="standard_car" accel="1.0" decel="4.5" length="5.0"
           minGap="2.5" maxSpeed="25" sigma="0.5"/>

    <!-- Main road routes (west-east and east-west) -->
    <route id="W_E" edges="left_in right_out"/>
    <route id="E_W" edges="right_in left_out"/>

    <!-- Routes from the north approach joining the main road -->
    <route id="N_E" edges="top_in right_out"/>
    <route id="N_W" edges="top_in left_out"/>

    <!-- Optional: if vehicles on the main road can turn northward -->
    <route id="E_N" edges="right_in top_out"/>
    <route id="W_N" edges="left_in top_out"/>
    <vehicle id="E_W_0" type="standard_car" route="E_W" depart="54" departLane="random" departSpeed="10" />
    <vehicle id="N_W_1" type="standard_car" route="N_W" depart="79" departLane="random" departSpeed="10" />
    <vehicle id="N_W_2" type="standard_car" route="N_W" depart="85" departLane="random" departSpeed="10" />
    <vehicle id="W_E_3" type="standard_car" route="W_E" depart="90" departLane="random" departSpeed="10" />
    <vehicle id="W_E_4" type="standard_car" route="W_E" depart="104" departLane="random" departSpeed="10" />
    <vehicle id="E_W_5" type="standard_car" route="E_W" depart="108" departLane="random" departSpeed="10" />
    <vehicle id="W_E_6" type="standard_car" route="W_E" depart="114" departLane="random" departSpeed="10" />
    <vehicle id="E_W_7" type="standard_car" route="E_W" depart="117" departLane="random" departSpeed="10" />
    <vehicle id="E_W_8" type="standard_car" route="E_W" depart="121" departLane="random" departSpeed="10" />
    <vehicle id="N_E_9" type="standard_car" route="N_E" depart="123" departLane="random" departSpeed="10" />
    <vehicle id="E_W_10" type="standard_car" route="E_W" depart="129" departLane="random" departSpeed="10" />
    <vehicle id="W_E_11" type="standard_car" route="W_E" depart="135" departLane="random" departSpeed="10" />
    <vehicle id="W_E_12" type="standard_car" route="W_E" depart="157" departLane="random" departSpeed="10" />
    <vehicle id="E_W_13" type="standard_car" route="E_W" depart="158" departLane="random" departSpeed="10" />
    <vehicle id="E_W_14" type="standard_car" route="E_W" depart="161" departLane="random" departSpeed="10" />
    <vehicle id="E_W_15" type="standard_car" route="E_W" depart="161" departLane="random" departSpeed="10" />
    <vehicle id="E_W_16" type="standard_car" route="E_W" depart="162" departLane="random" departSpeed="10" />
    <vehicle id="E_W_17" type="standard_car" route="E_W" depart="163" departLane="random" departSpeed="10" />
    <vehicle id="W_E_18" type="standard_car" route="W_E" depart="164" departLane="random" departSpeed="10" />
    <vehicle id="E_W_19" type="standard_car" route="E_W" depart="166" departLane="random" departSpeed="10" />
    <vehicle id="emergency_0" type="emergency" route="W_E" depart="173" departLane="random" departSpeed="10" />
    <vehicle id="W_E_20" type="standard_car" route="W_E" depart="175" departLane="random" departSpeed="10" />
    <vehicle id="E_W_21" type="standard_car" route="E_W" depart="179" departLane="random" departSpeed="10" />
    <vehicle id="E_W_22" type="standard_car" route="E_W" depart="183" departLane="random" departSpeed="10" />
    <vehicle id="E_W_23" type="standard_car" route="E_W" depart="185" departLane="random" departSpeed="10" />
    <vehicle id="W_E_24" type="standard_car" route="W_E" depart="189" departLane="random" departSpeed="10" />
    <vehicle id="N_W_25" type="standard_car" route="N_W" depart="194" departLane="random" departSpeed="10" />
    <vehicle id="N_W_26" type="standard_car" route="N_W" depart="198" departLane="random" departSpeed="10" />
    <vehicle id="W_E_27" type="standard_car" route="W_E" depart="206" departLane="random" departSpeed="10" />
    <vehicle id="W_E_28" type="standard_car" route="W_E" depart="206" departLane="random" departSpeed="10" />
    <vehicle id="W_E_29" type="standard_car" route="W_E" depart="213" departLane="random" departSpeed="10" />
    <vehicle id="N_W_30" type="standard_car" route="N_W" depart="222" departLane="random" departSpeed="10" />
    <vehicle id="E_W_31" type="standard_car" route="E_W" depart="232" departLane="random" departSpeed="10" />
    <vehicle id="N_E_32" type="standard_car" route="N_E" depart="237" departLane="random" departSpeed="10" />
    <vehicle id="N_W_33" type="standard_car" route="N_W" depart="238" departLane="random" departSpeed="10" />
    <vehicle id="N_E_34" type="standard_car" route="N_E" depart="246" departLane="random" departSpeed="10" />
    <vehicle id="W_E_35" type="standard_car" route="W_E" depart="248" departLane="random" departSpeed="10" />
    <vehicle id="W_E_36" type="standard_car" route="W_E" depart="248" departLane="random" departSpeed="10" />
    <vehicle id="N_E_37" type="standard_car" route="N_E" depart="252" departLane="random" departSpeed="10" />
    <vehicle id="E_W_38" type="standard_car" route="E_W" depart="253" departLane="random" departSpeed="10" />
    <vehicle id="W_E_39" type="standard_car" route="W_E" depart="263" departLane="random" departSpeed="10" />
    <vehicle id="N_W_40" type="standard_car" route="N_W" depart="266" departLane="random" departSpeed="10" />
    <vehicle id="E_W_41" type="standard_car" route="E_W" depart="266" departLane="random" departSpeed="10" />
    <vehicle id="W_E_42" type="standard_car" route="W_E" depart="279" departLane="random" departSpeed="10" />
    <vehicle id="N_E_43" type="standard_car" route="N_E" depart="280" departLane="random" departSpeed="10" />
    <vehicle id="E_W_44" type="standard_car" route="E_W" depart="287" departLane="random" departSpeed="10" />
    <vehicle id="W_E_45" type="standard_car" route="W_E" depart="287" departLane="random" departSpeed="10" />
    <vehicle id="W_E_46" type="standard_car" route="W_E" depart="288" departLane="random" departSpeed="10" />
    <vehicle id="E_W_47" type="standard_car" route="E_W" depart="290" departLane="random" departSpeed="10" />
    <vehicle id="W_E_48" type="standard_car" route="W_E" depart="292" departLane="random" departSpeed="10" />
    <vehicle id="W_E_49" type="standard_car" route="W_E" depart="298" departLane="random" departSpeed="10" />
    <vehicle id="W_E_50" type="standard_car" route="W_E" depart="299" departLane="random" departSpeed="10" />
    <vehicle id="E_W_51" type="standard_car" route="E_W" depart="299" departLane="random" departSpeed="10" />
    <vehicle id="W_E_52" type="standard_car" route="W_E" depart="302" departLane="random" departSpeed="10" />
    <vehicle id="N_E_53" type="standard_car" route="N_E" depart="303" departLane="random" departSpeed="10" />
    <vehicle id="E_W_54" type="standard_car" route="E_W" depart="307" departLane="random" departSpeed="10" />
    <vehicle id="W_E_55" type="standard_car" route="W_E" depart="310" departLane="random" departSpeed="10" />
    <vehicle id="E_W_56" type="standard_car" route="E_W" depart="312" departLane="random" departSpeed="10" />
    <vehicle id="W_E_57" type="standard_car" route="W_E" depart="316" departLane="random" departSpeed="10" />
    <vehicle id="W_E_58" type="standard_car" route="W_E" depart="317" departLane="random" departSpeed="10" />
    <vehicle id="E_W_59" type="standard_car" route="E_W" depart="319" departLane="random" departSpeed="10" />
    <vehicle id="N_E_60" type="standard_car" route="N_E" depart="321" departLane="random" departSpeed="10" />
    <vehicle id="N_W_61" type="standard_car" route="N_W" depart="329" departLane="random" departSpeed="10" />
    <vehicle id="E_W_62" type="standard_car" route="E_W" depart="329" departLane="random" departSpeed="10" />
    <vehicle id="N_W_63" type="standard_car" route="N_W" depart="336" departLane="random" departSpeed="10" />
    <vehicle id="N_E_64" type="standard_car" route="N_E" depart="350" departLane="random" departSpeed="10" />
    <vehicle id="N_E_65" type="standard_car" route="N_E" depart="351" departLane="random" departSpeed="10" />
    <vehicle id="W_E_66" type="standard_car" route="W_E" depart="352" departLane="random" departSpeed="10" />
    <vehicle id="E_W_67" type="standard_car" route="E_W" depart="356" departLane="random" departSpeed="10" />
    <vehicle id="N_W_68" type="standard_car" route="N_W" depart="357" departLane="random" departSpeed="10" />
    <vehicle id="N_W_69" type="standard_car" route="N_W" depart="359" departLane="random" departSpeed="10" />
    <vehicle id="W_E_70" type="standard_car" route="W_E" depart="360" departLane="random" departSpeed="10" />
    <vehicle id="E_W_71" type="standard_car" route="E_W" depart="362" departLane="random" departSpeed="10" />
    <vehicle id="W_E_72" type="standard_car" route="W_E" depart="363" departLane="random" departSpeed="10" />
    <vehicle id="N_E_73" type="standard_car" route="N_E" depart="365" departLane="random" departSpeed="10" />
    <vehicle id="E_W_74" type="standard_car" route="E_W" depart="370" departLane="random" departSpeed="10" />
    <vehicle id="N_E_75" type="standard_car" route="N_E" depart="372" departLane="random" departSpeed="10" />
    <vehicle id="W_E_76" type="standard_car" route="W_E" depart="372" departLane="random" departSpeed="10" />
    <vehicle id="W_E_77" type="standard_car" route="W_E" depart="372" departLane="random" departSpeed="10" />
    <vehicle id="N_E_78" type="standard_car" route="N_E" depart="375" departLane="random" departSpeed="10" />
    <vehicle id="E_W_79" type="standard_car" route="E_W" depart="378" departLane="random" departSpeed="10" />
    <vehicle id="E_W_80" type="standard_car" route="E_W" depart="380" departLane="random" departSpeed="10" />
    <vehicle id="N_W_81" type="standard_car" route="N_W" depart="380" departLane="random" departSpeed="10" />
    <vehicle id="W_E_82" type="standard_car" route="W_E" depart="385" departLane="random" departSpeed="10" />
    <vehicle id="E_W_83" type="standard_car" route="E_W" depart="387" departLane="random" departSpeed="10" />
    <vehicle id="W_E_84" type="standard_car" route="W_E" depart="389" departLane="random" departSpeed="10" />
    <vehicle id="W_E_85" type="standard_car" route="W_E" depart="394" departLane="random" departSpeed="10" />
    <vehicle id="N_E_86" type="standard_car" route="N_E" depart="395" departLane="random" departSpeed="10" />
    <vehicle id="N_W_87" type="standard_car" route="N_W" depart="395" departLane="random" departSpeed="10" />
    <vehicle id="E_W_88" type="standard_car" route="E_W" depart="403" departLane="random" departSpeed="10" />
    <vehicle id="E_W_89" type="standard_car" route="E_W" depart="404" departLane="random" departSpeed="10" />
    <vehicle id="W_E_90" type="standard_car" route="W_E" depart="405" departLane="random" departSpeed="10" />
    <vehicle id="E_W_91" type="standard_car" route="E_W" depart="410" departLane="random" departSpeed="10" />
    <vehicle id="N_E_92" type="standard_car" route="N_E" depart="412" departLane="random" departSpeed="10" />
    <vehicle id="N_E_93" type="standard_car" route="N_E" depart="413" departLane="random" departSpeed="10" />
    <vehicle id="W_E_94" type="standard_car" route="W_E" depart="415" departLane="random" departSpeed="10" />
    <vehicle id="E_W_95" type="standard_car" route="E_W" depart="417" departLane="random" departSpeed="10" />
    <vehicle id="E_W_96" type="standard_car" route="E_W" depart="419" departLane="random" departSpeed="10" />
    <vehicle id="W_E_97" type="standard_car" route="W_E" depart="419" departLane="random" departSpeed="10" />
    <vehicle id="E_W_98" type="standard_car" route="E_W" depart="420" departLane="random" departSpeed="10" />
    <vehicle id="N_W_99" type="standard_car" route="N_W" depart="421" departLane="random" departSpeed="10" />
    <vehicle id="E_W_100" type="standard_car" route="E_W" depart="423" departLane="random" departSpeed="10" />
    <vehicle id="E_W_101" type="standard_car" route="E_W" depart="425" departLane="random" departSpeed="10" />
    <vehicle id="N_W_102" type="standard_car" route="N_W" depart="426" departLane="random" departSpeed="10" />
    <vehicle id="E_W_103" type="standard_car" route="E_W" depart="426" departLane="random" departSpeed="10" />
    <vehicle id="W_E_104" type="standard_car" route="W_E" depart="432" departLane="random" departSpeed="10" />
    <vehicle id="E_W_105" type="standard_car" route="E_W" depart="434" departLane="random" departSpeed="10" />
    <vehicle id="W_E_106" type="standard_car" route="W_E" depart="436" departLane="random" departSpeed="10" />
    <vehicle id="N_E_107" type="standard_car" route="N_E" depart="437" departLane="random" departSpeed="10" />
    <vehicle id="W_E_108" type="standard_car" route="W_E" depart="440" departLane="random" departSpeed="10" />
    <vehicle id="W_E_109" type="standard_car" route="W_E" depart="440" departLane="random" departSpeed="10" />
    <vehicle id="N_W_110" type="standard_car" route="N_W" depart="444" departLane="random" departSpeed="10" />
    <vehicle id="E_W_111" type="standard_car" route="E_W" depart="446" departLane="random" departSpeed="10" />
    <vehicle id="W_E_112" type="standard_car" route="W_E" depart="447" departLane="random" departSpeed="10" />
    <vehicle id="N_E_113" type="standard_car" route="N_E" depart="448" departLane="random" departSpeed="10" />
    <vehicle id="N_E_114" type="standard_car" route="N_E" depart="450" departLane="random" departSpeed="10" />
    <vehicle id="E_W_115" type="standard_car" route="E_W" depart="451" departLane="random" departSpeed="10" />
    <vehicle id="N_W_116" type="standard_car" route="N_W" depart="452" departLane="random" departSpeed="10" />
    <vehicle id="E_W_117" type="standard_car" route="E_W" depart="452" departLane="random" departSpeed="10" />
    <vehicle id="E_W_118" type="standard_car" route="E_W" depart="454" departLane="random" departSpeed="10" />
    <vehicle id="W_E_119" type="standard_car" route="W_E" depart="458" departLane="random" departSpeed="10" />
    <vehicle id="E_W_120" type="standard_car" route="E_W" depart="459" departLane="random" departSpeed="10" />
    <vehicle id="W_E_121" type="standard_car" route="W_E" depart="463" departLane="random" departSpeed="10" />
    <vehicle id="E_W_122" type="standard_car" route="E_W" depart="465" departLane="random" departSpeed="10" />
    <vehicle id="W_E_123" type="standard_car" route="W_E" depart="467" departLane="random" departSpeed="10" />
    <vehicle id="E_W_124" type="standard_car" route="E_W" depart="468" departLane="random" departSpeed="10" />
    <vehicle id="W_E_125" type="standard_car" route="W_E" depart="469" departLane="random" departSpeed="10" />
    <vehicle id="E_W_126" type="standard_car" route="E_W" depart="469" departLane="random" departSpeed="10" />
    <vehicle id="N_W_127" type="standard_car" route="N_W" depart="473" departLane="random" departSpeed="10" />
    <vehicle id="N_W_128" type="standard_car" route="N_W" depart="473" departLane="random" departSpeed="10" />
    <vehicle id="N_E_129" type="standard_car" route="N_E" depart="473" departLane="random" departSpeed="10" />
    <vehicle id="W_E_130" type="standard_car" route="W_E" depart="475" departLane="random" departSpeed="10" />
    <vehicle id="W_E_131" type="standard_car" route="W_E" depart="476" departLane="random" departSpeed="10" />
    <vehicle id="E_W_132" type="standard_car" route="E_W" depart="478" departLane="random" departSpeed="10" />
    <vehicle id="N_W_133" type="standard_car" route="N_W" depart="480" departLane="random" departSpeed="10" />
    <vehicle id="E_W_134" type="standard_car" route="E_W" depart="480" departLane="random" departSpeed="10" />
    <vehicle id="N_E_135" type="standard_car" route="N_E" depart="484" departLane="random" departSpeed="10" />
    <vehicle id="N_W_136" type="standard_car" route="N_W" depart="486" departLane="random" departSpeed="10" />
    <vehicle id="W_E_137" type="standard_car" route="W_E" depart="490" departLane="random" departSpeed="10" />
    <vehicle id="W_E_138" type="standard_car" route="W_E" depart="493" departLane="random" departSpeed="10" />
    <vehicle id="W_E_139" type="standard_car" route="W_E" depart="497" departLane="random" departSpeed="10" />
    <vehicle id="E_W_140" type="standard_car" route="E_W" depart="497" departLane="random" departSpeed="10" />
    <vehicle id="N_W_141" type="standard_car" route="N_W" depart="498" departLane="random" departSpeed="10" />
    <vehicle id="E_W_142" type="standard_car" route="E_W" depart="500" departLane="random" departSpeed="10" />
    <vehicle id="W_E_143" type="standard_car" route="W_E" depart="501" departLane="random" departSpeed="10" />
    <vehicle id="W_E_144" type="standard_car" route="W_E" depart="501" departLane="random" departSpeed="10" />
    <vehicle id="W_E_145" type="standard_car" route="W_E" depart="501" departLane="random" departSpeed="10" />
    <vehicle id="N_E_146" type="standard_car" route="N_E" depart="502" departLane="random" departSpeed="10" />
    <vehicle id="N_E_147" type="standard_car" route="N_E" depart="504" departLane="random" departSpeed="10" />
    <vehicle id="N_W_148" type="standard_car" route="N_W" depart="505" departLane="random" departSpeed="10" />
    <vehicle id="E_W_149" type="standard_car" route="E_W" depart="505" departLane="random" departSpeed="10" />
    <vehicle id="N_W_150" type="standard_car" route="N_W" depart="507" departLane="random" departSpeed="10" />
    <vehicle id="E_W_151" type="standard_car" route="E_W" depart="507" departLane="random" departSpeed="10" />
    <vehicle id="E_W_152" type="standard_car" route="E_W" depart="508" departLane="random" departSpeed="10" />
    <vehicle id="E_W_153" type="standard_car" route="E_W" depart="508" departLane="random" departSpeed="10" />
    <vehicle id="W_E_154" type="standard_car" route="W_E" depart="515" departLane="random" departSpeed="10" />
    <vehicle id="N_E_155" type="standard_car" route="N_E" depart="517" departLane="random" departSpeed="10" />
    <vehicle id="E_W_156" type="standard_car" route="E_W" depart="519" departLane="random" departSpeed="10" />
    <vehicle id="W_E_157" type="standard_car" route="W_E" depart="519" departLane="random" departSpeed="10" />
    <vehicle id="N_W_158" type="standard_car" route="N_W" depart="521" departLane="random" departSpeed="10" />
    <vehicle id="E_W_159" type="standard_car" route="E_W" depart="523" departLane="random" departSpeed="10" />
    <vehicle id="N_E_160" type="standard_car" route="N_E" depart="527" departLane="random" departSpeed="10" />
    <vehicle id="W_E_161" type="standard_car" route="W_E" depart="528" departLane="random" departSpeed="10" />
    <vehicle id="N_W_162" type="standard_car" route="N_W" depart="530" departLane="random" departSpeed="10" />
    <vehicle id="N_E_163" type="standard_car" route="N_E" depart="531" departLane="random" departSpeed="10" />
    <vehicle id="W_E_164" type="standard_car" route="W_E" depart="534" departLane="random" departSpeed="10" />
    <vehicle id="N_W_165" type="standard_car" route="N_W" depart="538" departLane="random" departSpeed="10" />
    <vehicle id="W_E_166" type="standard_car" route="W_E" depart="538" departLane="random" departSpeed="10" />
    <vehicle id="N_E_167" type="standard_car" route="N_E" depart="538" departLane="random" departSpeed="10" />
    <vehicle id="N_W_168" type="standard_car" route="N_W" depart="539" departLane="random" departSpeed="10" />
    <vehicle id="N_E_169" type="standard_car" route="N_E" depart="541" departLane="random" departSpeed="10" />
    <vehicle id="N_E_170" type="standard_car" route="N_E" depart="544" departLane="random" departSpeed="10" />
    <vehicle id="N_W_171" type="standard_car" route="N_W" depart="544" departLane="random" departSpeed="10" />
    <vehicle id="W_E_172" type="standard_car" route="W_E" depart="545" departLane="random" departSpeed="10" />
    <vehicle id="N_E_173" type="standard_car" route="N_E" depart="545" departLane="random" departSpeed="10" />
    <vehicle id="E_W_174" type="standard_car" route="E_W" depart="546" departLane="random" departSpeed="10" />
    <vehicle id="W_E_175" type="standard_car" route="W_E" depart="548" departLane="random" departSpeed="10" />
    <vehicle id="W_E_176" type="standard_car" route="W_E" depart="550" departLane="random" departSpeed="10" />
    <vehicle id="N_W_177" type="standard_car" route="N_W" depart="550" departLane="random" departSpeed="10" />
    <vehicle id="W_E_178" type="standard_car" route="W_E" depart="553" departLane="random" departSpeed="10" />
    <vehicle id="E_W_179" type="standard_car" route="E_W" depart="554" departLane="random" departSpeed="10" />
    <vehicle id="N_E_180" type="standard_car" route="N_E" depart="555" departLane="random" departSpeed="10" />
    <vehicle id="N_E_181" type="standard_car" route="N_E" depart="556" departLane="random" departSpeed="10" />
    <vehicle id="E_W_182" type="standard_car" route="E_W" depart="558" departLane="random" departSpeed="10" />
    <vehicle id="W_E_183" type="standard_car" route="W_E" depart="558" departLane="random" departSpeed="10" />
    <vehicle id="W_E_184" type="standard_car" route="W_E" depart="560" departLane="random" departSpeed="10" />
    <vehicle id="N_E_185" type="standard_car" route="N_E" depart="562" departLane="random" departSpeed="10" />
    <vehicle id="N_E_186" type="standard_car" route="N_E" depart="563" departLane="random" departSpeed="10" />
    <vehicle id="E_W_187" type="standard_car" route="E_W" depart="567" departLane="random" departSpeed="10" />
    <vehicle id="E_W_188" type="standard_car" route="E_W" depart="570" departLane="random" departSpeed="10" />
    <vehicle id="W_E_189" type="standard_car" route="W_E" depart="570" departLane="random" departSpeed="10" />
    <vehicle id="W_E_190" type="standard_car" route="W_E" depart="570" departLane="random" departSpeed="10" />
    <vehicle id="N_E_191" type="standard_car" route="N_E" depart="571" departLane="random" departSpeed="10" />
    <vehicle id="N_W_192" type="standard_car" route="N_W" depart="571" departLane="random" departSpeed="10" />
    <vehicle id="N_E_193" type="standard_car" route="N_E" depart="572" departLane="random" departSpeed="10" />
    <vehicle id="W_E_194" type="standard_car" route="W_E" depart="573" departLane="random" departSpeed="10" />
    <vehicle id="N_W_195" type="standard_car" route="N_W" depart="574" departLane="random" departSpeed="10" />
    <vehicle id="N_E_196" type="standard_car" route="N_E" depart="576" departLane="random" departSpeed="10" />
    <vehicle id="E_W_197" type="standard_car" route="E_W" depart="578" departLane="random" departSpeed="10" />
    <vehicle id="E_W_198" type="standard_car" route="E_W" depart="578" departLane="random" departSpeed="10" />
    <vehicle id="E_W_199" type="standard_car" route="E_W" depart="580" departLane="random" departSpeed="10" />
    <vehicle id="W_E_200" type="standard_car" route="W_E" depart="580" departLane="random" departSpeed="10" />
    <vehicle id="W_E_201" type="standard_car" route="W_E" depart="585" departLane="random" departSpeed="10" />
    <vehicle id="N_W_202" type="standard_car" route="N_W" depart="588" departLane="random" departSpeed="10" />
    <vehicle id="W_E_203" type="standard_car" route="W_E" depart="589" departLane="random" departSpeed="10" />
    <vehicle id="N_E_204" type="standard_car" route="N_E" depart="590" departLane="random" departSpeed="10" />
    <vehicle id="N_W_205" type="standard_car" route="N_W" depart="591" departLane="random" departSpeed="10" />
    <vehicle id="W_E_206" type="standard_car" route="W_E" depart="592" departLane="random" departSpeed="10" />
    <vehicle id="W_E_207" type="standard_car" route="W_E" depart="592" departLane="random" departSpeed="10" />
    <vehicle id="W_E_208" type="standard_car" route="W_E" depart="593" departLane="random" departSpeed="10" />
    <vehicle id="N_E_209" type="standard_car" route="N_E" depart="596" departLane="random" departSpeed="10" />
    <vehicle id="W_E_210" type="standard_car" route="W_E" depart="597" departLane="random" departSpeed="10" />
    <vehicle id="E_W_211" type="standard_car" route="E_W" depart="597" departLane="random" departSpeed="10" />
    <vehicle id="E_W_212" type="standard_car" route="E_W" depart="598" departLane="random" departSpeed="10" />
    <vehicle id="E_W_213" type="standard_car" route="E_W" depart="598" departLane="random" departSpeed="10" />
    <vehicle id="E_W_214" type="standard_car" route="E_W" depart="601" departLane="random" departSpeed="10" />
    <vehicle id="N_W_215" type="standard_car" route="N_W" depart="601" departLane="random" departSpeed="10" />
    <vehicle id="N_W_216" type="standard_car" route="N_W" depart="602" departLane="random" departSpeed="10" />
    <vehicle id="E_W_217" type="standard_car" route="E_W" depart="602" departLane="random" departSpeed="10" />
    <vehicle id="W_E_218" type="standard_car" route="W_E" depart="605" departLane="random" departSpeed="10" />
    <vehicle id="W_E_219" type="standard_car" route="W_E" depart="605" departLane="random" departSpeed="10" />
    <vehicle id="W_E_220" type="standard_car" route="W_E" depart="605" departLane="random" departSpeed="10" />
    <vehicle id="W_E_221" type="standard_car" route="W_E" depart="606" departLane="random" departSpeed="10" />
    <vehicle id="W_E_222" type="standard_car" route="W_E" depart="607" departLane="random" departSpeed="10" />
    <vehicle id="E_W_223" type="standard_car" route="E_W" depart="608" departLane="random" departSpeed="10" />
    <vehicle id="E_W_224" type="standard_car" route="E_W" depart="610" departLane="random" departSpeed="10" />
    <vehicle id="W_E_225" type="standard_car" route="W_E" depart="611" departLane="random" departSpeed="10" />
    <vehicle id="W_E_226" type="standard_car" route="W_E" depart="613" departLane="random" departSpeed="10" />
    <vehicle id="W_E_227" type="standard_car" route="W_E" depart="613" departLane="random" departSpeed="10" />
    <vehicle id="W_E_228" type="standard_car" route="W_E" depart="615" departLane="random" departSpeed="10" />
    <vehicle id="N_W_229" type="standard_car" route="N_W" depart="616" departLane="random" departSpeed="10" />
    <vehicle id="E_W_230" type="standard_car" route="E_W" depart="617" departLane="random" departSpeed="10" />
    <vehicle id="W_E_231" type="standard_car" route="W_E" depart="617" departLane="random" departSpeed="10" />
    <vehicle id="W_E_232" type="standard_car" route="W_E" depart="620" departLane="random" departSpeed="10" />
    <vehicle id="E_W_233" type="standard_car" route="E_W" depart="620" departLane="random" departSpeed="10" />
    <vehicle id="E_W_234" type="standard_car" route="E_W" depart="622" departLane="random" departSpeed="10" />
    <vehicle id="N_E_235" type="standard_car" route="N_E" depart="623" departLane="random" departSpeed="10" />
    <vehicle id="E_W_236" type="standard_car" route="E_W" depart="623" departLane="random" departSpeed="10" />
    <vehicle id="E_W_237" type="standard_car" route="E_W" depart="624" departLane="random" departSpeed="10" />
    <vehicle id="N_E_238" type="standard_car" route="N_E" depart="624" departLane="random" departSpeed="10" />
    <vehicle id="E_W_239" type="standard_car" route="E_W" depart="625" departLane="random" departSpeed="10" />
    <vehicle id="E_W_240" type="standard_car" route="E_W" depart="628" departLane="random" departSpeed="10" />
    <vehicle id="E_W_241" type="standard_car" route="E_W" depart="632" departLane="random" departSpeed="10" />
    <vehicle id="E_W_242" type="standard_car" route="E_W" depart="632" departLane="random" departSpeed="10" />
    <vehicle id="W_E_243" type="standard_car" route="W_E" depart="634" departLane="random" departSpeed="10" />
    <vehicle id="N_W_244" type="standard_car" route="N_W" depart="635" departLane="random" departSpeed="10" />
    <vehicle id="N_W_245" type="standard_car" route="N_W" depart="638" departLane="random" departSpeed="10" />
    <vehicle id="E_W_246" type="standard_car" route="E_W" depart="641" departLane="random" departSpeed="10" />
    <vehicle id="E_W_247" type="standard_car" route="E_W" depart="643" departLane="random" departSpeed="10" />
    <vehicle id="W_E_248" type="standard_car" route="W_E" depart="644" departLane="random" departSpeed="10" />
    <vehicle id="E_W_249" type="standard_car" route="E_W" depart="645" departLane="random" departSpeed="10" />
    <vehicle id="W_E_250" type="standard_car" route="W_E" depart="645" departLane="random" departSpeed="10" />
    <vehicle id="E_W_251" type="standard_car" route="E_W" depart="646" departLane="random" departSpeed="10" />
    <vehicle id="N_W_252" type="standard_car" route="N_W" depart="647" departLane="random" departSpeed="10" />
    <vehicle id="E_W_253" type="standard_car" route="E_W" depart="647" departLane="random" departSpeed="10" />
    <vehicle id="N_E_254" type="standard_car" route="N_E" depart="648" departLane="random" departSpeed="10" />
    <vehicle id="N_E_255" type="standard_car" route="N_E" depart="648" departLane="random" departSpeed="10" />
    <vehicle id="E_W_256" type="standard_car" route="E_W" depart="652" departLane="random" departSpeed="10" />
    <vehicle id="W_E_257" type="standard_car" route="W_E" depart="653" departLane="random" departSpeed="10" />
    <vehicle id="N_W_258" type="standard_car" route="N_W" depart="660" departLane="random" departSpeed="10" />
    <vehicle id="E_W_259" type="standard_car" route="E_W" depart="661" departLane="random" departSpeed="10" />
    <vehicle id="N_W_260" type="standard_car" route="N_W" depart="661" departLane="random" departSpeed="10" />
    <vehicle id="W_E_261" type="standard_car" route="W_E" depart="663" departLane="random" departSpeed="10" />