<routes>
    <!-- Define emergency vehicle type -->
    <vType id="emergency" accel="3.0" decel="6.0" color="1,0,0" maxSpeed="20" sigma="0.5" emergency="true"/>
    <!-- Define standard vehicle type -->
    <vType id="standard_car" accel="1.0" decel="4.5" length="5.0" minGap="2.5" maxSpeed="25" sigma="0.5"/>
    
    <!-- Main road routes (west-east and east-west) -->
    <route id="W_E" edges="left_in right_out"/>
    <route id="E_W" edges="right_in left_out"/>
    
    <!-- Routes from the north approach joining the main road -->
    <route id="N_E" edges="top_in right_out"/>
    <route id="N_W" edges="top_in left_out"/>
    
    <!-- Optional: if vehicles on the main road can turn northward -->
    <route id="E_N" edges="right_in top_out"/>
    <route id="W_N" edges="left_in top_out"/>
    <vehicle id="N_W_0" type="standard_car" route="N_W" depart="19" departLane="random" departSpeed="10" />
    <vehicle id="E_W_1" type="standard_car" route="E_W" depart="97" departLane="random" departSpeed="10" />
    <vehicle id="W_E_2" type="standard_car" route="W_E" depart="202" departLane="random" departSpeed="10" />
    <vehicle id="W_E_3" type="standard_car" route="W_E" depart="213" departLane="random" departSpeed="10" />
    <vehicle id="E_W_4" type="standard_car" route="E_W" depart="227" departLane="random" departSpeed="10" />
    <vehicle id="W_E_5" type="standard_car" route="W_E" depart="245" departLane="random" departSpeed="10" />
    <vehicle id="N_E_6" type="standard_car" route="N_E" depart="246" departLane="random" departSpeed="10" />
    <vehicle id="W_E_7" type="standard_car" route="W_E" depart="247" departLane="random" departSpeed="10" />
    <vehicle id="E_W_8" type="standard_car" route="E_W" depart="252" departLane="random" departSpeed="10" />
    <vehicle id="W_E_9" type="standard_car" route="W_E" depart="255" departLane="random" departSpeed="10" />
    <vehicle id="E_W_10" type="standard_car" route="E_W" depart="293" departLane="random" departSpeed="10" />
    <vehicle id="E_W_11" type="standard_car" route="E_W" depart="300" departLane="random" departSpeed="10" />
    <vehicle id="N_W_12" type="standard_car" route="N_W" depart="305" departLane="random" departSpeed="10" />
    <vehicle id="E_W_13" type="standard_car" route="E_W" depart="359" departLane="random" departSpeed="10" />
    <vehicle id="E_W_14" type="standard_car" route="E_W" depart="384" departLane="random" departSpeed="10" />
    <vehicle id="N_W_15" type="standard_car" route="N_W" depart="407" departLane="random" departSpeed="10" />
    <vehicle id="W_E_16" type="standard_car" route="W_E" depart="422" departLane="random" departSpeed="10" />
    <vehicle id="W_E_17" type="standard_car" route="W_E" depart="447" departLane="random" departSpeed="10" />
    <vehicle id="N_E_18" type="standard_car" route="N_E" depart="470" departLane="random" departSpeed="10" />
    <vehicle id="W_E_19" type="standard_car" route="W_E" depart="470" departLane="random" departSpeed="10" />
    <vehicle id="W_E_20" type="standard_car" route="W_E" depart="472" departLane="random" departSpeed="10" />
    <vehicle id="E_W_21" type="standard_car" route="E_W" depart="472" departLane="random" departSpeed="10" />
    <vehicle id="emergency_0" type="emergency" route="N_E" depart="472" departLane="random" departSpeed="10" />
    <vehicle id="E_W_22" type="standard_car" route="E_W" depart="485" departLane="random" departSpeed="10" />
    <vehicle id="N_E_23" type="standard_car" route="N_E" depart="492" departLane="random" departSpeed="10" />
    <vehicle id="W_E_24" type="standard_car" route="W_E" depart="537" departLane="random" departSpeed="10" />
    <vehicle id="E_W_25" type="standard_car" route="E_W" depart="560" departLane="random" departSpeed="10" />
    <vehicle id="N_W_26" type="standard_car" route="N_W" depart="579" departLane="random" departSpeed="10" />
    <vehicle id="E_W_27" type="standard_car" route="E_W" depart="591" departLane="random" departSpeed="10" />
    <vehicle id="W_E_28" type="standard_car" route="W_E" depart="594" departLane="random" departSpeed="10" />
    <vehicle id="W_E_29" type="standard_car" route="W_E" depart="607" departLane="random" departSpeed="10" />
    <vehicle id="E_W_30" type="standard_car" route="E_W" depart="628" departLane="random" departSpeed="10" />
    <vehicle id="W_E_31" type="standard_car" route="W_E" depart="647" departLane="random" departSpeed="10" />
    <vehicle id="E_W_32" type="standard_car" route="E_W" depart="655" departLane="random" departSpeed="10" />
    <vehicle id="E_W_33" type="standard_car" route="E_W" depart="656" departLane="random" departSpeed="10" />
    <vehicle id="N_W_34" type="standard_car" route="N_W" depart="672" departLane="random" departSpeed="10" />
    <vehicle id="E_W_35" type="standard_car" route="E_W" depart="689" departLane="random" departSpeed="10" />
    <vehicle id="W_E_36" type="standard_car" route="W_E" depart="691" departLane="random" departSpeed="10" />
    <vehicle id="W_E_37" type="standard_car" route="W_E" depart="692" departLane="random" departSpeed="10" />
    <vehicle id="E_W_38" type="standard_car" route="E_W" depart="697" departLane="random" departSpeed="10" />
    <vehicle id="E_W_39" type="standard_car" route="E_W" depart="700" departLane="random" departSpeed="10" />
    <vehicle id="N_E_40" type="standard_car" route="N_E" depart="717" departLane="random" departSpeed="10" />
    <vehicle id="W_E_41" type="standard_car" route="W_E" depart="717" departLane="random" departSpeed="10" />
    <vehicle id="W_E_42" type="standard_car" route="W_E" depart="743" departLane="random" departSpeed="10" />
    <vehicle id="E_W_43" type="standard_car" route="E_W" depart="765" departLane="random" departSpeed="10" />
    <vehicle id="E_W_44" type="standard_car" route="E_W" depart="777" departLane="random" departSpeed="10" />
    <vehicle id="W_E_45" type="standard_car" route="W_E" depart="783" departLane="random" departSpeed="10" />
    <vehicle id="W_E_46" type="standard_car" route="W_E" depart="817" departLane="random" departSpeed="10" />
    <vehicle id="W_E_47" type="standard_car" route="W_E" depart="835" departLane="random" departSpeed="10" />
    <vehicle id="E_W_48" type="standard_car" route="E_W" depart="839" departLane="random" departSpeed="10" />
    <vehicle id="E_W_49" type="standard_car" route="E_W" depart="846" departLane="random" departSpeed="10" />
    <vehicle id="W_E_50" type="standard_car" route="W_E" depart="858" departLane="random" departSpeed="10" />
    <vehicle id="W_E_51" type="standard_car" route="W_E" depart="861" departLane="random" departSpeed="10" />
    <vehicle id="W_E_52" type="standard_car" route="W_E" depart="874" departLane="random" departSpeed="10" />
    <vehicle id="E_W_53" type="standard_car" route="E_W" depart="878" departLane="random" departSpeed="10" />
    <vehicle id="N_W_54" type="standard_car" route="N_W" depart="910" departLane="random" departSpeed="10" />
    <vehicle id="E_W_55" type="standard_car" route="E_W" depart="927" departLane="random" departSpeed="10" />
    <vehicle id="W_E_56" type="standard_car" route="W_E" depart="930" departLane="random" departSpeed="10" />
    <vehicle id="E_W_57" type="standard_car" route="E_W" depart="936" departLane="random" departSpeed="10" />
    <vehicle id="N_E_58" type="standard_car" route="N_E" depart="943" departLane="random" departSpeed="10" />
    <vehicle id="E_W_59" type="standard_car" route="E_W" depart="957" departLane="random" departSpeed="10" />
    <vehicle id="W_E_60" type="standard_car" route="W_E" depart="971" departLane="random" departSpeed="10" />
    <vehicle id="W_E_61" type="standard_car" route="W_E" depart="988" departLane="random" departSpeed="10" />
    <vehicle id="E_W_62" type="standard_car" route="E_W" depart="995" departLane="random" departSpeed="10" />
    <vehicle id="E_W_63" type="standard_car" route="E_W" depart="999" departLane="random" departSpeed="10" />
    <vehicle id="E_W_64" type="standard_car" route="E_W" depart="1000" departLane="random" departSpeed="10" />
    <vehicle id="W_E_65" type="standard_car" route="W_E" depart="1010" departLane="random" departSpeed="10" />
    <vehicle id="W_E_66" type="standard_car" route="W_E" depart="1030" departLane="random" departSpeed="10" />
    <vehicle id="N_W_67" type="standard_car" route="N_W" depart="1033" departLane="random" departSpeed="10" />
    <vehicle id="W_E_68" type="standard_car" route="W_E" depart="1049" departLane="random" departSpeed="10" />
    <vehicle id="E_W_69" type="standard_car" route="E_W" depart="1061" departLane="random" departSpeed="10" />
    <vehicle id="W_E_70" type="standard_car" route="W_E" depart="1080" departLane="random" departSpeed="10" />
    <vehicle id="E_W_71" type="standard_car" route="E_W" depart="1104" departLane="random" departSpeed="10" />
    <vehicle id="E_W_72" type="standard_car" route="E_W" depart="1108" departLane="random" departSpeed="10" />
    <vehicle id="W_E_73" type="standard_car" route="W_E" depart="1112" departLane="random" departSpeed="10" />
    <vehicle id="N_E_74" type="standard_car" route="N_E" depart="1132" departLane="random" departSpeed="10" />
    <vehicle id="W_E_75" type="standard_car" route="W_E" depart="1172" departLane="random" departSpeed="10" />
    <vehicle id="W_E_76" type="standard_car" route="W_E" depart="1177" departLane="random" departSpeed="10" />
    <vehicle id="E_W_77" type="standard_car" route="E_W" depart="1179" departLane="random" departSpeed="10" />
    <vehicle id="E_W_78" type="standard_car" route="E_W" depart="1197" departLane="random" departSpeed="10" />
    <vehicle id="W_E_79" type="standard_car" route="W_E" depart="1224" departLane="random" departSpeed="10" />
    <vehicle id="emergency_1" type="emergency" route="W_N" depart="1227" departLane="random" departSpeed="10" />
    <vehicle id="E_W_80" type="standard_car" route="E_W" depart="1245" departLane="random" departSpeed="10" />
    <vehicle id="E_W_81" type="standard_car" route="E_W" depart="1261" departLane="random" departSpeed="10" />
    <vehicle id="W_E_82" type="standard_car" route="W_E" depart="1280" departLane="random" departSpeed="10" />
    <vehicle id="N_E_83" type="standard_car" route="N_E" depart="1282" departLane="random" departSpeed="10" />
    <vehicle id="W_E_84" type="standard_car" route="W_E" depart="1304" departLane="random" departSpeed="10" />
    <vehicle id="W_E_85" type="standard_car" route="W_E" depart="1316" departLane="random" departSpeed="10" />
    <vehicle id="E_W_86" type="standard_car" route="E_W" depart="1316" departLane="random" departSpeed="10" />
    <vehicle id="N_W_87" type="standard_car" route="N_W" depart="1322" departLane="random" departSpeed="10" />
    <vehicle id="E_W_88" type="standard_car" route="E_W" depart="1323" departLane="random" departSpeed="10" />
    <vehicle id="N_W_89" type="standard_car" route="N_W" depart="1327" departLane="random" departSpeed="10" />
    <vehicle id="W_E_90" type="standard_car" route="W_E" depart="1331" departLane="random" departSpeed="10" />
    <vehicle id="E_W_91" type="standard_car" route="E_W" depart="1346" departLane="random" departSpeed="10" />
    <vehicle id="N_W_92" type="standard_car" route="N_W" depart="1387" departLane="random" departSpeed="10" />
    <vehicle id="W_E_93" type="standard_car" route="W_E" depart="1392" departLane="random" departSpeed="10" />
    <vehicle id="N_E_94" type="standard_car" route="N_E" depart="1469" departLane="random" departSpeed="10" />
    <vehicle id="W_E_95" type="standard_car" route="W_E" depart="1480" departLane="random" departSpeed="10" />
    <vehicle id="W_E_96" type="standard_car" route="W_E" depart="1485" departLane="random" departSpeed="10" />
    <vehicle id="N_W_97" type="standard_car" route="N_W" depart="1531" departLane="random" departSpeed="10" />
    <vehicle id="W_E_98" type="standard_car" route="W_E" depart="1552" departLane="random" departSpeed="10" />
    <vehicle id="N_W_99" type="standard_car" route="N_W" depart="1558" departLane="random" departSpeed="10" />
    <vehicle id="N_W_100" type="standard_car" route="N_W" depart="1571" departLane="random" departSpeed="10" />
    <vehicle id="W_E_101" type="standard_car" route="W_E" depart="1577" departLane="random" departSpeed="10" />
    <vehicle id="W_E_102" type="standard_car" route="W_E" depart="1584" departLane="random" departSpeed="10" />
    <vehicle id="E_W_103" type="standard_car" route="E_W" depart="1584" departLane="random" departSpeed="10" />
    <vehicle id="N_W_104" type="standard_car" route="N_W" depart="1611" departLane="random" departSpeed="10" />
    <vehicle id="E_W_105" type="standard_car" route="E_W" depart="1615" departLane="random" departSpeed="10" />
    <vehicle id="N_E_106" type="standard_car" route="N_E" depart="1622" departLane="random" departSpeed="10" />
    <vehicle id="N_W_107" type="standard_car" route="N_W" depart="1628" departLane="random" departSpeed="10" />
    <vehicle id="N_W_108" type="standard_car" route="N_W" depart="1630" departLane="random" departSpeed="10" />
    <vehicle id="E_W_109" type="standard_car" route="E_W" depart="1633" departLane="random" departSpeed="10" />
    <vehicle id="E_W_110" type="standard_car" route="E_W" depart="1649" departLane="random" departSpeed="10" />
    <vehicle id="N_E_111" type="standard_car" route="N_E" depart="1651" departLane="random" departSpeed="10" />
    <vehicle id="W_E_112" type="standard_car" route="W_E" depart="1662" departLane="random" departSpeed="10" />
    <vehicle id="E_W_113" type="standard_car" route="E_W" depart="1663" departLane="random" departSpeed="10" />
    <vehicle id="E_W_114" type="standard_car" route="E_W" depart="1673" departLane="random" departSpeed="10" />
    <vehicle id="W_E_115" type="standard_car" route="W_E" depart="1676" departLane="random" departSpeed="10" />
    <vehicle id="E_W_116" type="standard_car" route="E_W" depart="1680" departLane="random" departSpeed="10" />
    <vehicle id="N_W_117" type="standard_car" route="N_W" depart="1690" departLane="random" departSpeed="10" />
    <vehicle id="W_E_118" type="standard_car" route="W_E" depart="1692" departLane="random" departSpeed="10" />
    <vehicle id="E_W_119" type="standard_car" route="E_W" depart="1698" departLane="random" departSpeed="10" />
    <vehicle id="emergency_2" type="emergency" route="N_W" depart="1698" departLane="random" departSpeed="10" />
    <vehicle id="E_W_120" type="standard_car" route="E_W" depart="1738" departLane="random" departSpeed="10" />
    <vehicle id="W_E_121" type="standard_car" route="W_E" depart="1763" departLane="random" departSpeed="10" />
    <vehicle id="W_E_122" type="standard_car" route="W_E" depart="1764" departLane="random" departSpeed="10" />
    <vehicle id="W_E_123" type="standard_car" route="W_E" depart="1770" departLane="random" departSpeed="10" />
    <vehicle id="N_W_124" type="standard_car" route="N_W" depart="1775" departLane="random" departSpeed="10" />
    <vehicle id="W_E_125" type="standard_car" route="W_E" depart="1779" departLane="random" departSpeed="10" />
    <vehicle id="E_W_126" type="standard_car" route="E_W" depart="1779" departLane="random" departSpeed="10" />
    <vehicle id="N_E_127" type="standard_car" route="N_E" depart="1794" departLane="random" departSpeed="10" />
    <vehicle id="W_E_128" type="standard_car" route="W_E" depart="1818" departLane="random" departSpeed="10" />
    <vehicle id="E_W_129" type="standard_car" route="E_W" depart="1878" departLane="random" departSpeed="10" />
    <vehicle id="N_W_130" type="standard_car" route="N_W" depart="1879" departLane="random" departSpeed="10" />
    <vehicle id="E_W_131" type="standard_car" route="E_W" depart="1893" departLane="random" departSpeed="10" />
    <vehicle id="W_E_132" type="standard_car" route="W_E" depart="1896" departLane="random" departSpeed="10" />
    <vehicle id="W_E_133" type="standard_car" route="W_E" depart="1918" departLane="random" departSpeed="10" />
    <vehicle id="N_W_134" type="standard_car" route="N_W" depart="1935" departLane="random" departSpeed="10" />
    <vehicle id="E_W_135" type="standard_car" route="E_W" depart="1939" departLane="random" departSpeed="10" />
    <vehicle id="W_E_136" type="standard_car" route="W_E" depart="1950" departLane="random" departSpeed="10" />
    <vehicle id="E_W_137" type="standard_car" route="E_W" depart="1953" departLane="random" departSpeed="10" />
    <vehicle id="E_W_138" type="standard_car" route="E_W" depart="1954" departLane="random" departSpeed="10" />
    <vehicle id="W_E_139" type="standard_car" route="W_E" depart="1960" departLane="random" departSpeed="10" />
    <vehicle id="E_W_140" type="standard_car" route="E_W" depart="1966" departLane="random" departSpeed="10" />
    <vehicle id="W_E_141" type="standard_car" route="W_E" depart="1974" departLane="random" departSpeed="10" />
    <vehicle id="W_E_142" type="standard_car" route="W_E" depart="2007" departLane="random" departSpeed="10" />
    <vehicle id="N_E_143" type="standard_car" route="N_E" depart="2011" departLane="random" departSpeed="10" />
    <vehicle id="N_E_144" type="standard_car" route="N_E" depart="2032" departLane="random" departSpeed="10" />
    <vehicle id="N_E_145" type="standard_car" route="N_E" depart="2048" departLane="random" departSpeed="10" />
    <vehicle id="E_W_146" type="standard_car" route="E_W" depart="2075" departLane="random" departSpeed="10" />
    <vehicle id="N_E_147" type="standard_car" route="N_E" depart="2101" departLane="random" departSpeed="10" />
    <vehicle id="W_E_148" type="standard_car" route="W_E" depart="2105" departLane="random" departSpeed="10" />
    <vehicle id="W_E_149" type="standard_car" route="W_E" depart="2111" departLane="random" departSpeed="10" />
    <vehicle id="W_E_150" type="standard_car" route="W_E" depart="2114" departLane="random" departSpeed="10" />
    <vehicle id="N_E_151" type="standard_car" route="N_E" depart="2120" departLane="random" departSpeed="10" />
    <vehicle id="W_E_152" type="standard_car" route="W_E" depart="2122" departLane="random" departSpeed="10" />
    <vehicle id="N_W_153" type="standard_car" route="N_W" depart="2122" departLane="random" departSpeed="10" />
    <vehicle id="W_E_154" type="standard_car" route="W_E" depart="2128" departLane="random" departSpeed="10" />
    <vehicle id="E_W_155" type="standard_car" route="E_W" depart="2131" departLane="random" departSpeed="10" />
    <vehicle id="N_E_156" type="standard_car" route="N_E" depart="2136" departLane="random" departSpeed="10" />
    <vehicle id="N_E_157" type="standard_car" route="N_E" depart="2189" departLane="random" departSpeed="10" />
    <vehicle id="E_W_158" type="standard_car" route="E_W" depart="2246" departLane="random" departSpeed="10" />
    <vehicle id="E_W_159" type="standard_car" route="E_W" depart="2286" departLane="random" departSpeed="10" />
    <vehicle id="E_W_160" type="standard_car" route="E_W" depart="2286" departLane="random" departSpeed="10" />
    <vehicle id="E_W_161" type="standard_car" route="E_W" depart="2301" departLane="random" departSpeed="10" />
    <vehicle id="E_W_162" type="standard_car" route="E_W" depart="2309" departLane="random" departSpeed="10" />
    <vehicle id="N_E_163" type="standard_car" route="N_E" depart="2310" departLane="random" departSpeed="10" />
    <vehicle id="N_W_164" type="standard_car" route="N_W" depart="2392" departLane="random" departSpeed="10" />
    <vehicle id="N_W_165" type="standard_car" route="N_W" depart="2415" departLane="random" departSpeed="10" />
    <vehicle id="E_W_166" type="standard_car" route="E_W" depart="2445" departLane="random" departSpeed="10" />
    <vehicle id="N_W_167" type="standard_car" route="N_W" depart="2466" departLane="random" departSpeed="10" />
    <vehicle id="N_E_168" type="standard_car" route="N_E" depart="2524" departLane="random" departSpeed="10" />
    <vehicle id="N_E_169" type="standard_car" route="N_E" depart="2540" departLane="random" departSpeed="10" />
    <vehicle id="N_W_170" type="standard_car" route="N_W" depart="2603" departLane="random" departSpeed="10" />
    <vehicle id="N_E_171" type="standard_car" route="N_E" depart="2611" departLane="random" departSpeed="10" />
    <vehicle id="E_W_172" type="standard_car" route="E_W" depart="2611" departLane="random" departSpeed="10" />
    <vehicle id="W_E_173" type="standard_car" route="W_E" depart="2638" departLane="random" departSpeed="10" />
    <vehicle id="N_E_174" type="standard_car" route="N_E" depart="2652" departLane="random" departSpeed="10" />
    <vehicle id="N_W_175" type="standard_car" route="N_W" depart="2700" departLane="random" departSpeed="10" />
    <vehicle id="N_E_176" type="standard_car" route="N_E" depart="2707" departLane="random" departSpeed="10" />
    <vehicle id="W_E_177" type="standard_car" route="W_E" depart="2752" departLane="random" departSpeed="10" />
    <vehicle id="E_W_178" type="standard_car" route="E_W" depart="2752" departLane="random" departSpeed="10" />
    <vehicle id="E_W_179" type="standard_car" route="E_W" depart="2779" departLane="random" departSpeed="10" />
    <vehicle id="N_W_180" type="standard_car" route="N_W" depart="2784" departLane="random" departSpeed="10" />
    <vehicle id="N_W_181" type="standard_car" route="N_W" depart="2784" departLane="random" departSpeed="10" />
    <vehicle id="W_E_182" type="standard_car" route="W_E" depart="2882" departLane="random" departSpeed="10" />
    <vehicle id="N_W_183" type="standard_car" route="N_W" depart="2896" departLane="random" departSpeed="10" />
    <vehicle id="N_E_184" type="standard_car" route="N_E" depart="2916" departLane="random" departSpeed="10" />
    <vehicle id="E_W_185" type="standard_car" route="E_W" depart="2931" departLane="random" departSpeed="10" />
    <vehicle id="W_E_186" type="standard_car" route="W_E" depart="2951" departLane="random" departSpeed="10" />
    <vehicle id="N_E_187" type="standard_car" route="N_E" depart="2956" departLane="random" departSpeed="10" />
    <vehicle id="E_W_188" type="standard_car" route="E_W" depart="3062" departLane="random" departSpeed="10" />
    <vehicle id="E_W_189" type="standard_car" route="E_W" depart="3105" departLane="random" departSpeed="10" />
    <vehicle id="W_E_190" type="standard_car" route="W_E" depart="3110" departLane="random" departSpeed="10" />
    <vehicle id="W_E_191" type="standard_car" route="W_E" depart="3204" departLane="random" departSpeed="10" />
    <vehicle id="E_W_192" type="standard_car" route="E_W" depart="3293" departLane="random" departSpeed="10" />
    <vehicle id="N_E_193" type="standard_car" route="N_E" depart="3329" departLane="random" departSpeed="10" />
    <vehicle id="N_E_194" type="standard_car" route="N_E" depart="3343" departLane="random" departSpeed="10" />
    <vehicle id="W_E_195" type="standard_car" route="W_E" depart="3364" departLane="random" departSpeed="10" />
    <vehicle id="W_E_196" type="standard_car" route="W_E" depart="3371" departLane="random" departSpeed="10" />
    <vehicle id="N_E_197" type="standard_car" route="N_E" depart="3808" departLane="random" departSpeed="10" />
    <vehicle id="N_E_198" type="standard_car" route="N_E" depart="3817" departLane="random" departSpeed="10" />
    <vehicle id="W_E_199" type="standard_car" route="W_E" depart="4381" departLane="random" departSpeed="10" />
</routes>
