<routes>
    <vType id="emergency" accel="3.0" decel="6.0" color="1,0,0" maxSpeed="20" sigma="0.5" emergency="true" />
    <vType id="standard_car" accel="1.0" decel="4.5" length="5.0" minGap="2.5" maxSpeed="25" sigma="0.5" />
    <!-- Define routes based on the new lane naming -->
    <route id="main_W_E" edges="h12_0 h12_1"/>
    <route id="main_E_W" edges="-h11_0 -h11_1"/>
    <route id="side_N_E" edges="-v11_0 -v11_1"/>
    <route id="side_N_W" edges="v12_0 v12_1"/>
</routes>
    <vehicle id="W_E_0" type="standard_car" route="W_E" depart="42" departLane="random" departSpeed="10" />
    <vehicle id="E_W_1" type="standard_car" route="E_W" depart="67" departLane="random" departSpeed="10" />
    <vehicle id="N_E_2" type="standard_car" route="N_E" depart="94" departLane="random" departSpeed="10" />
    <vehicle id="W_E_3" type="standard_car" route="W_E" depart="112" departLane="random" departSpeed="10" />
    <vehicle id="W_E_4" type="standard_car" route="W_E" depart="123" departLane="random" departSpeed="10" />
    <vehicle id="W_E_5" type="standard_car" route="W_E" depart="129" departLane="random" departSpeed="10" />
    <vehicle id="N_W_6" type="standard_car" route="N_W" depart="160" departLane="random" departSpeed="10" />
    <vehicle id="E_W_7" type="standard_car" route="E_W" depart="193" departLane="random" departSpeed="10" />
    <vehicle id="W_E_8" type="standard_car" route="W_E" depart="195" departLane="random" departSpeed="10" />
    <vehicle id="E_W_9" type="standard_car" route="E_W" depart="198" departLane="random" departSpeed="10" />
    <vehicle id="W_E_10" type="standard_car" route="W_E" depart="199" departLane="random" departSpeed="10" />
    <vehicle id="N_E_11" type="standard_car" route="N_E" depart="208" departLane="random" departSpeed="10" />
    <vehicle id="E_W_12" type="standard_car" route="E_W" depart="226" departLane="random" departSpeed="10" />
    <vehicle id="W_E_13" type="standard_car" route="W_E" depart="231" departLane="random" departSpeed="10" />
    <vehicle id="W_E_14" type="standard_car" route="W_E" depart="232" departLane="random" departSpeed="10" />
    <vehicle id="W_E_15" type="standard_car" route="W_E" depart="235" departLane="random" departSpeed="10" />
    <vehicle id="N_E_16" type="standard_car" route="N_E" depart="246" departLane="random" departSpeed="10" />
    <vehicle id="E_W_17" type="standard_car" route="E_W" depart="248" departLane="random" departSpeed="10" />
    <vehicle id="E_W_18" type="standard_car" route="E_W" depart="250" departLane="random" departSpeed="10" />
    <vehicle id="W_E_19" type="standard_car" route="W_E" depart="251" departLane="random" departSpeed="10" />
    <vehicle id="W_E_20" type="standard_car" route="W_E" depart="257" departLane="random" departSpeed="10" />
    <vehicle id="W_E_21" type="standard_car" route="W_E" depart="257" departLane="random" departSpeed="10" />
    <vehicle id="N_E_22" type="standard_car" route="N_E" depart="260" departLane="random" departSpeed="10" />
    <vehicle id="E_W_23" type="standard_car" route="E_W" depart="282" departLane="random" departSpeed="10" />
    <vehicle id="W_E_24" type="standard_car" route="W_E" depart="285" departLane="random" departSpeed="10" />
    <vehicle id="E_W_25" type="standard_car" route="E_W" depart="290" departLane="random" departSpeed="10" />
    <vehicle id="E_W_26" type="standard_car" route="E_W" depart="309" departLane="random" departSpeed="10" />
    <vehicle id="E_W_27" type="standard_car" route="E_W" depart="310" departLane="random" departSpeed="10" />
    <vehicle id="E_W_28" type="standard_car" route="E_W" depart="314" departLane="random" departSpeed="10" />
    <vehicle id="W_E_29" type="standard_car" route="W_E" depart="315" departLane="random" departSpeed="10" />
    <vehicle id="E_W_30" type="standard_car" route="E_W" depart="324" departLane="random" departSpeed="10" />
    <vehicle id="W_E_31" type="standard_car" route="W_E" depart="330" departLane="random" departSpeed="10" />
    <vehicle id="E_W_32" type="standard_car" route="E_W" depart="331" departLane="random" departSpeed="10" />
    <vehicle id="E_W_33" type="standard_car" route="E_W" depart="342" departLane="random" departSpeed="10" />
    <vehicle id="W_E_34" type="standard_car" route="W_E" depart="345" departLane="random" departSpeed="10" />
    <vehicle id="W_E_35" type="standard_car" route="W_E" depart="357" departLane="random" departSpeed="10" />
    <vehicle id="N_E_36" type="standard_car" route="N_E" depart="360" departLane="random" departSpeed="10" />
    <vehicle id="W_E_37" type="standard_car" route="W_E" depart="362" departLane="random" departSpeed="10" />
    <vehicle id="N_W_38" type="standard_car" route="N_W" depart="364" departLane="random" departSpeed="10" />
    <vehicle id="E_W_39" type="standard_car" route="E_W" depart="377" departLane="random" departSpeed="10" />
    <vehicle id="N_E_40" type="standard_car" route="N_E" depart="385" departLane="random" departSpeed="10" />
    <vehicle id="E_W_41" type="standard_car" route="E_W" depart="391" departLane="random" departSpeed="10" />
    <vehicle id="W_E_42" type="standard_car" route="W_E" depart="394" departLane="random" departSpeed="10" />
    <vehicle id="N_W_43" type="standard_car" route="N_W" depart="402" departLane="random" departSpeed="10" />
    <vehicle id="E_W_44" type="standard_car" route="E_W" depart="405" departLane="random" departSpeed="10" />
    <vehicle id="E_W_45" type="standard_car" route="E_W" depart="422" departLane="random" departSpeed="10" />
    <vehicle id="W_E_46" type="standard_car" route="W_E" depart="425" departLane="random" departSpeed="10" />
    <vehicle id="N_E_47" type="standard_car" route="N_E" depart="430" departLane="random" departSpeed="10" />
    <vehicle id="W_E_48" type="standard_car" route="W_E" depart="435" departLane="random" departSpeed="10" />
    <vehicle id="N_E_49" type="standard_car" route="N_E" depart="436" departLane="random" departSpeed="10" />
    <vehicle id="W_E_50" type="standard_car" route="W_E" depart="440" departLane="random" departSpeed="10" />
    <vehicle id="N_E_51" type="standard_car" route="N_E" depart="441" departLane="random" departSpeed="10" />
    <vehicle id="W_E_52" type="standard_car" route="W_E" depart="442" departLane="random" departSpeed="10" />
    <vehicle id="E_W_53" type="standard_car" route="E_W" depart="445" departLane="random" departSpeed="10" />
    <vehicle id="N_E_54" type="standard_car" route="N_E" depart="448" departLane="random" departSpeed="10" />
    <vehicle id="W_E_55" type="standard_car" route="W_E" depart="449" departLane="random" departSpeed="10" />
    <vehicle id="N_E_56" type="standard_car" route="N_E" depart="452" departLane="random" departSpeed="10" />
    <vehicle id="N_E_57" type="standard_car" route="N_E" depart="458" departLane="random" departSpeed="10" />
    <vehicle id="N_E_58" type="standard_car" route="N_E" depart="458" departLane="random" departSpeed="10" />
    <vehicle id="W_E_59" type="standard_car" route="W_E" depart="460" departLane="random" departSpeed="10" />
    <vehicle id="E_W_60" type="standard_car" route="E_W" depart="461" departLane="random" departSpeed="10" />
    <vehicle id="N_W_61" type="standard_car" route="N_W" depart="463" departLane="random" departSpeed="10" />
    <vehicle id="N_E_62" type="standard_car" route="N_E" depart="463" departLane="random" departSpeed="10" />
    <vehicle id="E_W_63" type="standard_car" route="E_W" depart="468" departLane="random" departSpeed="10" />
    <vehicle id="E_W_64" type="standard_car" route="E_W" depart="469" departLane="random" departSpeed="10" />
    <vehicle id="N_E_65" type="standard_car" route="N_E" depart="471" departLane="random" departSpeed="10" />
    <vehicle id="E_W_66" type="standard_car" route="E_W" depart="475" departLane="random" departSpeed="10" />
    <vehicle id="W_E_67" type="standard_car" route="W_E" depart="478" departLane="random" departSpeed="10" />
    <vehicle id="W_E_68" type="standard_car" route="W_E" depart="481" departLane="random" departSpeed="10" />
    <vehicle id="N_E_69" type="standard_car" route="N_E" depart="482" departLane="random" departSpeed="10" />
    <vehicle id="N_E_70" type="standard_car" route="N_E" depart="482" departLane="random" departSpeed="10" />
    <vehicle id="N_E_71" type="standard_car" route="N_E" depart="485" departLane="random" departSpeed="10" />
    <vehicle id="E_W_72" type="standard_car" route="E_W" depart="488" departLane="random" departSpeed="10" />
    <vehicle id="W_E_73" type="standard_car" route="W_E" depart="489" departLane="random" departSpeed="10" />
    <vehicle id="E_W_74" type="standard_car" route="E_W" depart="504" departLane="random" departSpeed="10" />
    <vehicle id="W_E_75" type="standard_car" route="W_E" depart="508" departLane="random" departSpeed="10" />
    <vehicle id="E_W_76" type="standard_car" route="E_W" depart="509" departLane="random" departSpeed="10" />
    <vehicle id="E_W_77" type="standard_car" route="E_W" depart="518" departLane="random" departSpeed="10" />
    <vehicle id="W_E_78" type="standard_car" route="W_E" depart="522" departLane="random" departSpeed="10" />
    <vehicle id="W_E_79" type="standard_car" route="W_E" depart="523" departLane="random" departSpeed="10" />
    <vehicle id="E_W_80" type="standard_car" route="E_W" depart="524" departLane="random" departSpeed="10" />
    <vehicle id="E_W_81" type="standard_car" route="E_W" depart="531" departLane="random" departSpeed="10" />
    <vehicle id="E_W_82" type="standard_car" route="E_W" depart="538" departLane="random" departSpeed="10" />
    <vehicle id="E_W_83" type="standard_car" route="E_W" depart="543" departLane="random" departSpeed="10" />
    <vehicle id="N_E_84" type="standard_car" route="N_E" depart="551" departLane="random" departSpeed="10" />
    <vehicle id="W_E_85" type="standard_car" route="W_E" depart="552" departLane="random" departSpeed="10" />
    <vehicle id="E_W_86" type="standard_car" route="E_W" depart="556" departLane="random" departSpeed="10" />
    <vehicle id="W_E_87" type="standard_car" route="W_E" depart="565" departLane="random" departSpeed="10" />
    <vehicle id="N_E_88" type="standard_car" route="N_E" depart="572" departLane="random" departSpeed="10" />
    <vehicle id="N_W_89" type="standard_car" route="N_W" depart="573" departLane="random" departSpeed="10" />
    <vehicle id="E_W_90" type="standard_car" route="E_W" depart="574" departLane="random" departSpeed="10" />
    <vehicle id="W_E_91" type="standard_car" route="W_E" depart="575" departLane="random" departSpeed="10" />
    <vehicle id="W_E_92" type="standard_car" route="W_E" depart="576" departLane="random" departSpeed="10" />
    <vehicle id="W_E_93" type="standard_car" route="W_E" depart="576" departLane="random" departSpeed="10" />
    <vehicle id="E_W_94" type="standard_car" route="E_W" depart="577" departLane="random" departSpeed="10" />
    <vehicle id="E_W_95" type="standard_car" route="E_W" depart="578" departLane="random" departSpeed="10" />
    <vehicle id="W_E_96" type="standard_car" route="W_E" depart="583" departLane="random" departSpeed="10" />
    <vehicle id="W_E_97" type="standard_car" route="W_E" depart="583" departLane="random" departSpeed="10" />
    <vehicle id="E_W_98" type="standard_car" route="E_W" depart="584" departLane="random" departSpeed="10" />
    <vehicle id="N_W_99" type="standard_car" route="N_W" depart="585" departLane="random" departSpeed="10" />
    <vehicle id="W_E_100" type="standard_car" route="W_E" depart="585" departLane="random" departSpeed="10" />
    <vehicle id="E_W_101" type="standard_car" route="E_W" depart="591" departLane="random" departSpeed="10" />
    <vehicle id="E_W_102" type="standard_car" route="E_W" depart="592" departLane="random" departSpeed="10" />
    <vehicle id="N_W_103" type="standard_car" route="N_W" depart="594" departLane="random" departSpeed="10" />
    <vehicle id="W_E_104" type="standard_car" route="W_E" depart="598" departLane="random" departSpeed="10" />
    <vehicle id="N_W_105" type="standard_car" route="N_W" depart="602" departLane="random" departSpeed="10" />
    <vehicle id="E_W_106" type="standard_car" route="E_W" depart="606" departLane="random" departSpeed="10" />
    <vehicle id="N_W_107" type="standard_car" route="N_W" depart="606" departLane="random" departSpeed="10" />
    <vehicle id="E_W_108" type="standard_car" route="E_W" depart="607" departLane="random" departSpeed="10" />
    <vehicle id="E_W_109" type="standard_car" route="E_W" depart="614" departLane="random" departSpeed="10" />
    <vehicle id="W_E_110" type="standard_car" route="W_E" depart="616" departLane="random" departSpeed="10" />
    <vehicle id="N_W_111" type="standard_car" route="N_W" depart="616" departLane="random" departSpeed="10" />
    <vehicle id="N_E_112" type="standard_car" route="N_E" depart="619" departLane="random" departSpeed="10" />
    <vehicle id="E_W_113" type="standard_car" route="E_W" depart="622" departLane="random" departSpeed="10" />
    <vehicle id="W_E_114" type="standard_car" route="W_E" depart="631" departLane="random" departSpeed="10" />
    <vehicle id="E_W_115" type="standard_car" route="E_W" depart="631" departLane="random" departSpeed="10" />
    <vehicle id="N_W_116" type="standard_car" route="N_W" depart="631" departLane="random" departSpeed="10" />
    <vehicle id="N_W_117" type="standard_car" route="N_W" depart="632" departLane="random" departSpeed="10" />
    <vehicle id="E_W_118" type="standard_car" route="E_W" depart="632" departLane="random" departSpeed="10" />
    <vehicle id="N_W_119" type="standard_car" route="N_W" depart="636" departLane="random" departSpeed="10" />
    <vehicle id="N_W_120" type="standard_car" route="N_W" depart="636" departLane="random" departSpeed="10" />
    <vehicle id="N_W_121" type="standard_car" route="N_W" depart="636" departLane="random" departSpeed="10" />
    <vehicle id="E_W_122" type="standard_car" route="E_W" depart="636" departLane="random" departSpeed="10" />
    <vehicle id="N_W_123" type="standard_car" route="N_W" depart="636" departLane="random" departSpeed="10" />
    <vehicle id="N_W_124" type="standard_car" route="N_W" depart="639" departLane="random" departSpeed="10" />
    <vehicle id="N_E_125" type="standard_car" route="N_E" depart="640" departLane="random" departSpeed="10" />
    <vehicle id="N_W_126" type="standard_car" route="N_W" depart="644" departLane="random" departSpeed="10" />
    <vehicle id="W_E_127" type="standard_car" route="W_E" depart="644" departLane="random" departSpeed="10" />
    <vehicle id="W_E_128" type="standard_car" route="W_E" depart="654" departLane="random" departSpeed="10" />
    <vehicle id="W_E_129" type="standard_car" route="W_E" depart="669" departLane="random" departSpeed="10" />
    <vehicle id="W_E_130" type="standard_car" route="W_E" depart="669" departLane="random" departSpeed="10" />
    <vehicle id="W_E_131" type="standard_car" route="W_E" depart="675" departLane="random" departSpeed="10" />
    <vehicle id="W_E_132" type="standard_car" route="W_E" depart="675" departLane="random" departSpeed="10" />
    <vehicle id="E_W_133" type="standard_car" route="E_W" depart="676" departLane="random" departSpeed="10" />
    <vehicle id="N_W_134" type="standard_car" route="N_W" depart="677" departLane="random" departSpeed="10" />
    <vehicle id="E_W_135" type="standard_car" route="E_W" depart="677" departLane="random" departSpeed="10" />
    <vehicle id="E_W_136" type="standard_car" route="E_W" depart="679" departLane="random" departSpeed="10" />
    <vehicle id="W_E_137" type="standard_car" route="W_E" depart="681" departLane="random" departSpeed="10" />
    <vehicle id="N_W_138" type="standard_car" route="N_W" depart="681" departLane="random" departSpeed="10" />
    <vehicle id="E_W_139" type="standard_car" route="E_W" depart="687" departLane="random" departSpeed="10" />
    <vehicle id="E_W_140" type="standard_car" route="E_W" depart="691" departLane="random" departSpeed="10" />
    <vehicle id="N_E_141" type="standard_car" route="N_E" depart="694" departLane="random" departSpeed="10" />
    <vehicle id="W_E_142" type="standard_car" route="W_E" depart="697" departLane="random" departSpeed="10" />
    <vehicle id="N_W_143" type="standard_car" route="N_W" depart="700" departLane="random" departSpeed="10" />
    <vehicle id="W_E_144" type="standard_car" route="W_E" depart="700" departLane="random" departSpeed="10" />
    <vehicle id="N_W_145" type="standard_car" route="N_W" depart="703" departLane="random" departSpeed="10" />
    <vehicle id="E_W_146" type="standard_car" route="E_W" depart="708" departLane="random" departSpeed="10" />
    <vehicle id="W_E_147" type="standard_car" route="W_E" depart="712" departLane="random" departSpeed="10" />
    <vehicle id="N_E_148" type="standard_car" route="N_E" depart="718" departLane="random" departSpeed="10" />
    <vehicle id="E_W_149" type="standard_car" route="E_W" depart="720" departLane="random" departSpeed="10" />
    <vehicle id="W_E_150" type="standard_car" route="W_E" depart="720" departLane="random" departSpeed="10" />
    <vehicle id="E_W_151" type="standard_car" route="E_W" depart="720" departLane="random" departSpeed="10" />
    <vehicle id="E_W_152" type="standard_car" route="E_W" depart="721" departLane="random" departSpeed="10" />
    <vehicle id="W_E_153" type="standard_car" route="W_E" depart="724" departLane="random" departSpeed="10" />
    <vehicle id="W_E_154" type="standard_car" route="W_E" depart="728" departLane="random" departSpeed="10" />
    <vehicle id="E_W_155" type="standard_car" route="E_W" depart="732" departLane="random" departSpeed="10" />
    <vehicle id="E_W_156" type="standard_car" route="E_W" depart="734" departLane="random" departSpeed="10" />
    <vehicle id="W_E_157" type="standard_car" route="W_E" depart="742" departLane="random" departSpeed="10" />
    <vehicle id="W_E_158" type="standard_car" route="W_E" depart="749" departLane="random" departSpeed="10" />
    <vehicle id="W_E_159" type="standard_car" route="W_E" depart="749" departLane="random" departSpeed="10" />
    <vehicle id="W_E_160" type="standard_car" route="W_E" depart="750" departLane="random" departSpeed="10" />
    <vehicle id="W_E_161" type="standard_car" route="W_E" depart="751" departLane="random" departSpeed="10" />
    <vehicle id="W_E_162" type="standard_car" route="W_E" depart="752" departLane="random" departSpeed="10" />
    <vehicle id="W_E_163" type="standard_car" route="W_E" depart="753" departLane="random" departSpeed="10" />
    <vehicle id="E_W_164" type="standard_car" route="E_W" depart="753" departLane="random" departSpeed="10" />
    <vehicle id="W_E_165" type="standard_car" route="W_E" depart="755" departLane="random" departSpeed="10" />
    <vehicle id="E_W_166" type="standard_car" route="E_W" depart="757" departLane="random" departSpeed="10" />
    <vehicle id="N_W_167" type="standard_car" route="N_W" depart="758" departLane="random" departSpeed="10" />
    <vehicle id="W_E_168" type="standard_car" route="W_E" depart="758" departLane="random" departSpeed="10" />
    <vehicle id="N_W_169" type="standard_car" route="N_W" depart="759" departLane="random" departSpeed="10" />
    <vehicle id="E_W_170" type="standard_car" route="E_W" depart="764" departLane="random" departSpeed="10" />
    <vehicle id="N_E_171" type="standard_car" route="N_E" depart="767" departLane="random" departSpeed="10" />
    <vehicle id="W_E_172" type="standard_car" route="W_E" depart="775" departLane="random" departSpeed="10" />
    <vehicle id="E_W_173" type="standard_car" route="E_W" depart="781" departLane="random" departSpeed="10" />
    <vehicle id="N_E_174" type="standard_car" route="N_E" depart="782" departLane="random" departSpeed="10" />
    <vehicle id="E_W_175" type="standard_car" route="E_W" depart="784" departLane="random" departSpeed="10" />
    <vehicle id="N_W_176" type="standard_car" route="N_W" depart="789" departLane="random" departSpeed="10" />
    <vehicle id="N_E_177" type="standard_car" route="N_E" depart="789" departLane="random" departSpeed="10" />
    <vehicle id="E_W_178" type="standard_car" route="E_W" depart="790" departLane="random" departSpeed="10" />
    <vehicle id="W_E_179" type="standard_car" route="W_E" depart="793" departLane="random" departSpeed="10" />
    <vehicle id="E_W_180" type="standard_car" route="E_W" depart="794" departLane="random" departSpeed="10" />
    <vehicle id="W_E_181" type="standard_car" route="W_E" depart="798" departLane="random" departSpeed="10" />
    <vehicle id="E_W_182" type="standard_car" route="E_W" depart="801" departLane="random" departSpeed="10" />
    <vehicle id="E_W_183" type="standard_car" route="E_W" depart="801" departLane="random" departSpeed="10" />
    <vehicle id="N_W_184" type="standard_car" route="N_W" depart="805" departLane="random" departSpeed="10" />
    <vehicle id="E_W_185" type="standard_car" route="E_W" depart="809" departLane="random" departSpeed="10" />
    <vehicle id="W_E_186" type="standard_car" route="W_E" depart="810" departLane="random" departSpeed="10" />
    <vehicle id="W_E_187" type="standard_car" route="W_E" depart="810" departLane="random" departSpeed="10" />
    <vehicle id="E_W_188" type="standard_car" route="E_W" depart="815" departLane="random" departSpeed="10" />
    <vehicle id="W_E_189" type="standard_car" route="W_E" depart="815" departLane="random" departSpeed="10" />
    <vehicle id="N_E_190" type="standard_car" route="N_E" depart="816" departLane="random" departSpeed="10" />
    <vehicle id="N_E_191" type="standard_car" route="N_E" depart="817" departLane="random" departSpeed="10" />
    <vehicle id="E_W_192" type="standard_car" route="E_W" depart="819" departLane="random" departSpeed="10" />
    <vehicle id="E_W_193" type="standard_car" route="E_W" depart="826" departLane="random" departSpeed="10" />
    <vehicle id="N_E_194" type="standard_car" route="N_E" depart="828" departLane="random" departSpeed="10" />
    <vehicle id="W_E_195" type="standard_car" route="W_E" depart="842" departLane="random" departSpeed="10" />
    <vehicle id="E_W_196" type="standard_car" route="E_W" depart="843" departLane="random" departSpeed="10" />
    <vehicle id="E_W_197" type="standard_car" route="E_W" depart="844" departLane="random" departSpeed="10" />
    <vehicle id="W_E_198" type="standard_car" route="W_E" depart="849" departLane="random" departSpeed="10" />
    <vehicle id="N_W_199" type="standard_car" route="N_W" depart="850" departLane="random" departSpeed="10" />
    <vehicle id="N_W_200" type="standard_car" route="N_W" depart="862" departLane="random" departSpeed="10" />
    <vehicle id="N_W_201" type="standard_car" route="N_W" depart="868" departLane="random" departSpeed="10" />
    <vehicle id="N_E_202" type="standard_car" route="N_E" depart="870" departLane="random" departSpeed="10" />
    <vehicle id="W_E_203" type="standard_car" route="W_E" depart="871" departLane="random" departSpeed="10" />
    <vehicle id="W_E_204" type="standard_car" route="W_E" depart="873" departLane="random" departSpeed="10" />
    <vehicle id="W_E_205" type="standard_car" route="W_E" depart="874" departLane="random" departSpeed="10" />
    <vehicle id="N_W_206" type="standard_car" route="N_W" depart="875" departLane="random" departSpeed="10" />
    <vehicle id="W_E_207" type="standard_car" route="W_E" depart="877" departLane="random" departSpeed="10" />
    <vehicle id="E_W_208" type="standard_car" route="E_W" depart="880" departLane="random" departSpeed="10" />
    <vehicle id="W_E_209" type="standard_car" route="W_E" depart="882" departLane="random" departSpeed="10" />
    <vehicle id="N_E_210" type="standard_car" route="N_E" depart="883" departLane="random" departSpeed="10" />
    <vehicle id="N_W_211" type="standard_car" route="N_W" depart="887" departLane="random" departSpeed="10" />
    <vehicle id="N_W_212" type="standard_car" route="N_W" depart="887" departLane="random" departSpeed="10" />
    <vehicle id="E_W_213" type="standard_car" route="E_W" depart="889" departLane="random" departSpeed="10" />
    <vehicle id="E_W_214" type="standard_car" route="E_W" depart="890" departLane="random" departSpeed="10" />
    <vehicle id="N_W_215" type="standard_car" route="N_W" depart="890" departLane="random" departSpeed="10" />
    <vehicle id="N_W_216" type="standard_car" route="N_W" depart="892" departLane="random" departSpeed="10" />
    <vehicle id="E_W_217" type="standard_car" route="E_W" depart="897" departLane="random" departSpeed="10" />
    <vehicle id="E_W_218" type="standard_car" route="E_W" depart="900" departLane="random" departSpeed="10" />
    <vehicle id="E_W_219" type="standard_car" route="E_W" depart="900" departLane="random" departSpeed="10" />
    <vehicle id="W_E_220" type="standard_car" route="W_E" depart="904" departLane="random" departSpeed="10" />
    <vehicle id="E_W_221" type="standard_car" route="E_W" depart="904" departLane="random" departSpeed="10" />
    <vehicle id="E_W_222" type="standard_car" route="E_W" depart="906" departLane="random" departSpeed="10" />
    <vehicle id="W_E_223" type="standard_car" route="W_E" depart="907" departLane="random" departSpeed="10" />
    <vehicle id="N_W_224" type="standard_car" route="N_W" depart="914" departLane="random" departSpeed="10" />
    <vehicle id="E_W_225" type="standard_car" route="E_W" depart="914" departLane="random" departSpeed="10" />
    <vehicle id="E_W_226" type="standard_car" route="E_W" depart="915" departLane="random" departSpeed="10" />
    <vehicle id="E_W_227" type="standard_car" route="E_W" depart="917" departLane="random" departSpeed="10" />
    <vehicle id="N_W_228" type="standard_car" route="N_W" depart="919" departLane="random" departSpeed="10" />
    <vehicle id="W_E_229" type="standard_car" route="W_E" depart="924" departLane="random" departSpeed="10" />
    <vehicle id="N_W_230" type="standard_car" route="N_W" depart="925" departLane="random" departSpeed="10" />
    <vehicle id="W_E_231" type="standard_car" route="W_E" depart="926" departLane="random" departSpeed="10" />
    <vehicle id="W_E_232" type="standard_car" route="W_E" depart="926" departLane="random" departSpeed="10" />
    <vehicle id="E_W_233" type="standard_car" route="E_W" depart="928" departLane="random" departSpeed="10" />
    <vehicle id="W_E_234" type="standard_car" route="W_E" depart="938" departLane="random" departSpeed="10" />
    <vehicle id="N_W_235" type="standard_car" route="N_W" depart="938" departLane="random" departSpeed="10" />
    <vehicle id="E_W_236" type="standard_car" route="E_W" depart="938" departLane="random" departSpeed="10" />
    <vehicle id="W_E_237" type="standard_car" route="W_E" depart="939" departLane="random" departSpeed="10" />
    <vehicle id="W_E_238" type="standard_car" route="W_E" depart="943" departLane="random" departSpeed="10" />
    <vehicle id="E_W_239" type="standard_car" route="E_W" depart="945" departLane="random" departSpeed="10" />
    <vehicle id="N_E_240" type="standard_car" route="N_E" depart="946" departLane="random" departSpeed="10" />
    <vehicle id="N_E_241" type="standard_car" route="N_E" depart="946" departLane="random" departSpeed="10" />
    <vehicle id="W_E_242" type="standard_car" route="W_E" depart="947" departLane="random" departSpeed="10" />
    <vehicle id="N_E_243" type="standard_car" route="N_E" depart="948" departLane="random" departSpeed="10" />
    <vehicle id="N_W_244" type="standard_car" route="N_W" depart="953" departLane="random" departSpeed="10" />
    <vehicle id="N_E_245" type="standard_car" route="N_E" depart="954" departLane="random" departSpeed="10" />
    <vehicle id="E_W_246" type="standard_car" route="E_W" depart="955" departLane="random" departSpeed="10" />
    <vehicle id="N_E_247" type="standard_car" route="N_E" depart="957" departLane="random" departSpeed="10" />
    <vehicle id="N_E_248" type="standard_car" route="N_E" depart="958" departLane="random" departSpeed="10" />
    <vehicle id="N_W_249" type="standard_car" route="N_W" depart="960" departLane="random" departSpeed="10" />
    <vehicle id="N_E_250" type="standard_car" route="N_E" depart="960" departLane="random" departSpeed="10" />
    <vehicle id="E_W_251" type="standard_car" route="E_W" depart="962" departLane="random" departSpeed="10" />
    <vehicle id="W_E_252" type="standard_car" route="W_E" depart="963" departLane="random" departSpeed="10" />
    <vehicle id="W_E_253" type="standard_car" route="W_E" depart="964" departLane="random" departSpeed="10" />
    <vehicle id="E_W_254" type="standard_car" route="E_W" depart="966" departLane="random" departSpeed="10" />
    <vehicle id="E_W_255" type="standard_car" route="E_W" depart="970" departLane="random" departSpeed="10" />
    <vehicle id="W_E_256" type="standard_car" route="W_E" depart="973" departLane="random" departSpeed="10" />
    <vehicle id="E_W_257" type="standard_car" route="E_W" depart="973" departLane="random" departSpeed="10" />
    <vehicle id="W_E_258" type="standard_car" route="W_E" depart="974" departLane="random" departSpeed="10" />
    <vehicle id="W_E_259" type="standard_car" route="W_E" depart="974" departLane="random" departSpeed="10" />
    <vehicle id="E_W_260" type="standard_car" route="E_W" depart="975" departLane="random" departSpeed="10" />
    <vehicle id="N_W_261" type="standard_car" route="N_W" depart="981" departLane="random" departSpeed="10" />
    <vehicle id="N_E_262" type="standard_car" route="N_E" depart="985" departLane="random" departSpeed="10" />
    <vehicle id="E_W_263" type="standard_car" route="E_W" depart="986" departLane="random" departSpeed="10" />
    <vehicle id="E_W_264" type="standard_car" route="E_W" depart="990" departLane="random" departSpeed="10" />
    <vehicle id="W_E_265" type="standard_car" route="W_E" depart="992" departLane="random" departSpeed="10" />