<routes>
    <!-- Define emergency vehicle type -->
    <vType id="emergency" accel="3.0" decel="6.0" color="1,0,0"
           maxSpeed="20" sigma="0.5" emergency="true"/>
    <!-- Define standard vehicle type -->
    <vType id="standard_car" accel="1.0" decel="4.5" length="5.0"
           minGap="2.5" maxSpeed="25" sigma="0.5"/>

    <!-- Main road routes (west-east and east-west) -->
    <route id="W_E" edges="left_in right_out"/>
    <route id="E_W" edges="right_in left_out"/>

    <!-- Routes from the north approach joining the main road -->
    <route id="N_E" edges="top_in right_out"/>
    <route id="N_W" edges="top_in left_out"/>

    <!-- Optional: if vehicles on the main road can turn northward -->
    <route id="E_N" edges="right_in top_out"/>
    <route id="W_N" edges="left_in top_out"/>
    <vehicle id="W_E_0" type="standard_car" route="W_E" depart="421" departLane="random" departSpeed="10" />
    <vehicle id="E_W_1" type="standard_car" route="E_W" depart="470" departLane="random" departSpeed="10" />
    <vehicle id="emergency_0" type="emergency" route="N_W" depart="571" departLane="random" departSpeed="10" />
    <vehicle id="E_W_2" type="standard_car" route="E_W" depart="583" departLane="random" departSpeed="10" />
    <vehicle id="N_W_3" type="standard_car" route="N_W" depart="606" departLane="random" departSpeed="10" />
    <vehicle id="E_W_4" type="standard_car" route="E_W" depart="621" departLane="random" departSpeed="10" />
    <vehicle id="N_W_5" type="standard_car" route="N_W" depart="646" departLane="random" departSpeed="10" />
    <vehicle id="E_W_6" type="standard_car" route="E_W" depart="658" departLane="random" departSpeed="10" />
    <vehicle id="W_E_7" type="standard_car" route="W_E" depart="680" departLane="random" departSpeed="10" />
    <vehicle id="W_E_8" type="standard_car" route="W_E" depart="685" departLane="random" departSpeed="10" />
    <vehicle id="E_W_9" type="standard_car" route="E_W" depart="698" departLane="random" departSpeed="10" />
    <vehicle id="E_W_10" type="standard_car" route="E_W" depart="711" departLane="random" departSpeed="10" />
    <vehicle id="W_E_11" type="standard_car" route="W_E" depart="728" departLane="random" departSpeed="10" />
    <vehicle id="W_E_12" type="standard_car" route="W_E" depart="741" departLane="random" departSpeed="10" />
    <vehicle id="N_W_13" type="standard_car" route="N_W" depart="747" departLane="random" departSpeed="10" />
    <vehicle id="W_E_14" type="standard_car" route="W_E" depart="749" departLane="random" departSpeed="10" />
    <vehicle id="E_W_15" type="standard_car" route="E_W" depart="794" departLane="random" departSpeed="10" />
    <vehicle id="E_W_16" type="standard_car" route="E_W" depart="816" departLane="random" departSpeed="10" />
    <vehicle id="N_W_17" type="standard_car" route="N_W" depart="828" departLane="random" departSpeed="10" />
    <vehicle id="W_E_18" type="standard_car" route="W_E" depart="839" departLane="random" departSpeed="10" />
    <vehicle id="N_W_19" type="standard_car" route="N_W" depart="840" departLane="random" departSpeed="10" />
    <vehicle id="E_W_20" type="standard_car" route="E_W" depart="856" departLane="random" departSpeed="10" />
    <vehicle id="N_E_21" type="standard_car" route="N_E" depart="877" departLane="random" departSpeed="10" />
    <vehicle id="N_W_22" type="standard_car" route="N_W" depart="989" departLane="random" departSpeed="10" />
    <vehicle id="W_E_23" type="standard_car" route="W_E" depart="1005" departLane="random" departSpeed="10" />
    <vehicle id="N_E_24" type="standard_car" route="N_E" depart="1046" departLane="random" departSpeed="10" />
    <vehicle id="E_W_25" type="standard_car" route="E_W" depart="1062" departLane="random" departSpeed="10" />
    <vehicle id="N_W_26" type="standard_car" route="N_W" depart="1096" departLane="random" departSpeed="10" />
    <vehicle id="E_W_27" type="standard_car" route="E_W" depart="1103" departLane="random" departSpeed="10" />
    <vehicle id="E_W_28" type="standard_car" route="E_W" depart="1113" departLane="random" departSpeed="10" />
    <vehicle id="E_W_29" type="standard_car" route="E_W" depart="1115" departLane="random" departSpeed="10" />
    <vehicle id="E_W_30" type="standard_car" route="E_W" depart="1120" departLane="random" departSpeed="10" />
    <vehicle id="N_W_31" type="standard_car" route="N_W" depart="1166" departLane="random" departSpeed="10" />
    <vehicle id="W_E_32" type="standard_car" route="W_E" depart="1192" departLane="random" departSpeed="10" />
    <vehicle id="W_E_33" type="standard_car" route="W_E" depart="1231" departLane="random" departSpeed="10" />
    <vehicle id="E_W_34" type="standard_car" route="E_W" depart="1247" departLane="random" departSpeed="10" />
    <vehicle id="N_E_35" type="standard_car" route="N_E" depart="1262" departLane="random" departSpeed="10" />
    <vehicle id="E_W_36" type="standard_car" route="E_W" depart="1272" departLane="random" departSpeed="10" />
    <vehicle id="W_E_37" type="standard_car" route="W_E" depart="1280" departLane="random" departSpeed="10" />
    <vehicle id="N_W_38" type="standard_car" route="N_W" depart="1293" departLane="random" departSpeed="10" />
    <vehicle id="N_E_39" type="standard_car" route="N_E" depart="1295" departLane="random" departSpeed="10" />
    <vehicle id="E_W_40" type="standard_car" route="E_W" depart="1301" departLane="random" departSpeed="10" />
    <vehicle id="N_W_41" type="standard_car" route="N_W" depart="1309" departLane="random" departSpeed="10" />
    <vehicle id="E_W_42" type="standard_car" route="E_W" depart="1332" departLane="random" departSpeed="10" />
    <vehicle id="W_E_43" type="standard_car" route="W_E" depart="1339" departLane="random" departSpeed="10" />
    <vehicle id="W_E_44" type="standard_car" route="W_E" depart="1353" departLane="random" departSpeed="10" />
    <vehicle id="W_E_45" type="standard_car" route="W_E" depart="1363" departLane="random" departSpeed="10" />
    <vehicle id="W_E_46" type="standard_car" route="W_E" depart="1382" departLane="random" departSpeed="10" />
    <vehicle id="N_W_47" type="standard_car" route="N_W" depart="1383" departLane="random" departSpeed="10" />
    <vehicle id="W_E_48" type="standard_car" route="W_E" depart="1416" departLane="random" departSpeed="10" />
    <vehicle id="W_E_49" type="standard_car" route="W_E" depart="1424" departLane="random" departSpeed="10" />
    <vehicle id="W_E_50" type="standard_car" route="W_E" depart="1479" departLane="random" departSpeed="10" />
    <vehicle id="N_W_51" type="standard_car" route="N_W" depart="1483" departLane="random" departSpeed="10" />
    <vehicle id="E_W_52" type="standard_car" route="E_W" depart="1494" departLane="random" departSpeed="10" />
    <vehicle id="N_W_53" type="standard_car" route="N_W" depart="1512" departLane="random" departSpeed="10" />
    <vehicle id="N_E_54" type="standard_car" route="N_E" depart="1530" departLane="random" departSpeed="10" />
    <vehicle id="E_W_55" type="standard_car" route="E_W" depart="1541" departLane="random" departSpeed="10" />
    <vehicle id="N_W_56" type="standard_car" route="N_W" depart="1543" departLane="random" departSpeed="10" />
    <vehicle id="E_W_57" type="standard_car" route="E_W" depart="1545" departLane="random" departSpeed="10" />
    <vehicle id="N_W_58" type="standard_car" route="N_W" depart="1559" departLane="random" departSpeed="10" />
    <vehicle id="W_E_59" type="standard_car" route="W_E" depart="1559" departLane="random" departSpeed="10" />
    <vehicle id="E_W_60" type="standard_car" route="E_W" depart="1571" departLane="random" departSpeed="10" />
    <vehicle id="W_E_61" type="standard_car" route="W_E" depart="1583" departLane="random" departSpeed="10" />
    <vehicle id="E_W_62" type="standard_car" route="E_W" depart="1583" departLane="random" departSpeed="10" />
    <vehicle id="N_E_63" type="standard_car" route="N_E" depart="1586" departLane="random" departSpeed="10" />
    <vehicle id="E_W_64" type="standard_car" route="E_W" depart="1628" departLane="random" departSpeed="10" />
    <vehicle id="E_W_65" type="standard_car" route="E_W" depart="1633" departLane="random" departSpeed="10" />
    <vehicle id="N_E_66" type="standard_car" route="N_E" depart="1657" departLane="random" departSpeed="10" />
    <vehicle id="W_E_67" type="standard_car" route="W_E" depart="1660" departLane="random" departSpeed="10" />
    <vehicle id="E_W_68" type="standard_car" route="E_W" depart="1695" departLane="random" departSpeed="10" />
    <vehicle id="W_E_69" type="standard_car" route="W_E" depart="1740" departLane="random" departSpeed="10" />
    <vehicle id="E_W_70" type="standard_car" route="E_W" depart="1743" departLane="random" departSpeed="10" />
    <vehicle id="W_E_71" type="standard_car" route="W_E" depart="1750" departLane="random" departSpeed="10" />
    <vehicle id="W_E_72" type="standard_car" route="W_E" depart="1801" departLane="random" departSpeed="10" />
    <vehicle id="W_E_73" type="standard_car" route="W_E" depart="1809" departLane="random" departSpeed="10" />
    <vehicle id="W_E_74" type="standard_car" route="W_E" depart="1811" departLane="random" departSpeed="10" />
    <vehicle id="N_W_75" type="standard_car" route="N_W" depart="1822" departLane="random" departSpeed="10" />
    <vehicle id="W_E_76" type="standard_car" route="W_E" depart="1828" departLane="random" departSpeed="10" />
    <vehicle id="W_E_77" type="standard_car" route="W_E" depart="1847" departLane="random" departSpeed="10" />
    <vehicle id="W_E_78" type="standard_car" route="W_E" depart="1860" departLane="random" departSpeed="10" />
    <vehicle id="W_E_79" type="standard_car" route="W_E" depart="1892" departLane="random" departSpeed="10" />
    <vehicle id="N_E_80" type="standard_car" route="N_E" depart="1950" departLane="random" departSpeed="10" />
    <vehicle id="N_E_81" type="standard_car" route="N_E" depart="1974" departLane="random" departSpeed="10" />
    <vehicle id="E_W_82" type="standard_car" route="E_W" depart="1977" departLane="random" departSpeed="10" />
    <vehicle id="W_E_83" type="standard_car" route="W_E" depart="1991" departLane="random" departSpeed="10" />
    <vehicle id="E_W_84" type="standard_car" route="E_W" depart="2027" departLane="random" departSpeed="10" />
    <vehicle id="W_E_85" type="standard_car" route="W_E" depart="2042" departLane="random" departSpeed="10" />
    <vehicle id="N_E_86" type="standard_car" route="N_E" depart="2057" departLane="random" departSpeed="10" />
    <vehicle id="W_E_87" type="standard_car" route="W_E" depart="2059" departLane="random" departSpeed="10" />
    <vehicle id="N_W_88" type="standard_car" route="N_W" depart="2072" departLane="random" departSpeed="10" />
    <vehicle id="W_E_89" type="standard_car" route="W_E" depart="2074" departLane="random" departSpeed="10" />
    <vehicle id="N_W_90" type="standard_car" route="N_W" depart="2102" departLane="random" departSpeed="10" />
    <vehicle id="E_W_91" type="standard_car" route="E_W" depart="2104" departLane="random" departSpeed="10" />
    <vehicle id="E_W_92" type="standard_car" route="E_W" depart="2109" departLane="random" departSpeed="10" />
    <vehicle id="W_E_93" type="standard_car" route="W_E" depart="2112" departLane="random" departSpeed="10" />
    <vehicle id="N_W_94" type="standard_car" route="N_W" depart="2148" departLane="random" departSpeed="10" />
    <vehicle id="W_E_95" type="standard_car" route="W_E" depart="2168" departLane="random" departSpeed="10" />
    <vehicle id="E_W_96" type="standard_car" route="E_W" depart="2180" departLane="random" departSpeed="10" />
    <vehicle id="E_W_97" type="standard_car" route="E_W" depart="2180" departLane="random" departSpeed="10" />
    <vehicle id="N_W_98" type="standard_car" route="N_W" depart="2184" departLane="random" departSpeed="10" />
    <vehicle id="N_E_99" type="standard_car" route="N_E" depart="2191" departLane="random" departSpeed="10" />
    <vehicle id="W_E_100" type="standard_car" route="W_E" depart="2195" departLane="random" departSpeed="10" />
    <vehicle id="E_W_101" type="standard_car" route="E_W" depart="2200" departLane="random" departSpeed="10" />
    <vehicle id="N_E_102" type="standard_car" route="N_E" depart="2212" departLane="random" departSpeed="10" />
    <vehicle id="W_E_103" type="standard_car" route="W_E" depart="2257" departLane="random" departSpeed="10" />
    <vehicle id="E_W_104" type="standard_car" route="E_W" depart="2283" departLane="random" departSpeed="10" />
    <vehicle id="N_E_105" type="standard_car" route="N_E" depart="2294" departLane="random" departSpeed="10" />
    <vehicle id="N_E_106" type="standard_car" route="N_E" depart="2303" departLane="random" departSpeed="10" />
    <vehicle id="N_E_107" type="standard_car" route="N_E" depart="2362" departLane="random" departSpeed="10" />
    <vehicle id="W_E_108" type="standard_car" route="W_E" depart="2377" departLane="random" departSpeed="10" />
    <vehicle id="N_E_109" type="standard_car" route="N_E" depart="2382" departLane="random" departSpeed="10" />
    <vehicle id="W_E_110" type="standard_car" route="W_E" depart="2383" departLane="random" departSpeed="10" />
    <vehicle id="W_E_111" type="standard_car" route="W_E" depart="2391" departLane="random" departSpeed="10" />
    <vehicle id="E_W_112" type="standard_car" route="E_W" depart="2395" departLane="random" departSpeed="10" />
    <vehicle id="W_E_113" type="standard_car" route="W_E" depart="2415" departLane="random" departSpeed="10" />
    <vehicle id="W_E_114" type="standard_car" route="W_E" depart="2422" departLane="random" departSpeed="10" />
    <vehicle id="N_W_115" type="standard_car" route="N_W" depart="2424" departLane="random" departSpeed="10" />
    <vehicle id="W_E_116" type="standard_car" route="W_E" depart="2439" departLane="random" departSpeed="10" />
    <vehicle id="W_E_117" type="standard_car" route="W_E" depart="2443" departLane="random" departSpeed="10" />
    <vehicle id="W_E_118" type="standard_car" route="W_E" depart="2490" departLane="random" departSpeed="10" />
    <vehicle id="N_E_119" type="standard_car" route="N_E" depart="2536" departLane="random" departSpeed="10" />
    <vehicle id="W_E_120" type="standard_car" route="W_E" depart="2552" departLane="random" departSpeed="10" />
    <vehicle id="E_W_121" type="standard_car" route="E_W" depart="2573" departLane="random" departSpeed="10" />
    <vehicle id="N_E_122" type="standard_car" route="N_E" depart="2706" departLane="random" departSpeed="10" />
    <vehicle id="E_W_123" type="standard_car" route="E_W" depart="2730" departLane="random" departSpeed="10" />
    <vehicle id="N_E_124" type="standard_car" route="N_E" depart="2763" departLane="random" departSpeed="10" />
    <vehicle id="N_E_125" type="standard_car" route="N_E" depart="2768" departLane="random" departSpeed="10" />
    <vehicle id="W_E_126" type="standard_car" route="W_E" depart="2771" departLane="random" departSpeed="10" />
    <vehicle id="W_E_127" type="standard_car" route="W_E" depart="2775" departLane="random" departSpeed="10" />
    <vehicle id="W_E_128" type="standard_car" route="W_E" depart="2779" departLane="random" departSpeed="10" />
    <vehicle id="E_W_129" type="standard_car" route="E_W" depart="2806" departLane="random" departSpeed="10" />
    <vehicle id="E_W_130" type="standard_car" route="E_W" depart="2836" departLane="random" departSpeed="10" />
    <vehicle id="N_W_131" type="standard_car" route="N_W" depart="2852" departLane="random" departSpeed="10" />
    <vehicle id="W_E_132" type="standard_car" route="W_E" depart="2867" departLane="random" departSpeed="10" />
    <vehicle id="emergency_1" type="emergency" route="E_W" depart="2875" departLane="random" departSpeed="10" />
    <vehicle id="W_E_133" type="standard_car" route="W_E" depart="2888" departLane="random" departSpeed="10" />
    <vehicle id="W_E_134" type="standard_car" route="W_E" depart="2919" departLane="random" departSpeed="10" />
    <vehicle id="W_E_135" type="standard_car" route="W_E" depart="2926" departLane="random" departSpeed="10" />
    <vehicle id="W_E_136" type="standard_car" route="W_E" depart="2928" departLane="random" departSpeed="10" />
    <vehicle id="N_E_137" type="standard_car" route="N_E" depart="2930" departLane="random" departSpeed="10" />
    <vehicle id="E_W_138" type="standard_car" route="E_W" depart="2935" departLane="random" departSpeed="10" />
    <vehicle id="N_E_139" type="standard_car" route="N_E" depart="2942" departLane="random" departSpeed="10" />
    <vehicle id="N_E_140" type="standard_car" route="N_E" depart="2958" departLane="random" departSpeed="10" />
    <vehicle id="E_W_141" type="standard_car" route="E_W" depart="2965" departLane="random" departSpeed="10" />
    <vehicle id="E_W_142" type="standard_car" route="E_W" depart="2992" departLane="random" departSpeed="10" />
    <vehicle id="W_E_143" type="standard_car" route="W_E" depart="2994" departLane="random" departSpeed="10" />
    <vehicle id="W_E_144" type="standard_car" route="W_E" depart="2996" departLane="random" departSpeed="10" />
    <vehicle id="W_E_145" type="standard_car" route="W_E" depart="3063" departLane="random" departSpeed="10" />
    <vehicle id="E_W_146" type="standard_car" route="E_W" depart="3071" departLane="random" departSpeed="10" />
    <vehicle id="E_W_147" type="standard_car" route="E_W" depart="3073" departLane="random" departSpeed="10" />
    <vehicle id="N_E_148" type="standard_car" route="N_E" depart="3075" departLane="random" departSpeed="10" />
    <vehicle id="N_E_149" type="standard_car" route="N_E" depart="3077" departLane="random" departSpeed="10" />
    <vehicle id="N_W_150" type="standard_car" route="N_W" depart="3093" departLane="random" departSpeed="10" />
    <vehicle id="E_W_151" type="standard_car" route="E_W" depart="3139" departLane="random" departSpeed="10" />
    <vehicle id="E_W_152" type="standard_car" route="E_W" depart="3146" departLane="random" departSpeed="10" />
    <vehicle id="W_E_153" type="standard_car" route="W_E" depart="3155" departLane="random" departSpeed="10" />
    <vehicle id="W_E_154" type="standard_car" route="W_E" depart="3164" departLane="random" departSpeed="10" />
    <vehicle id="E_W_155" type="standard_car" route="E_W" depart="3184" departLane="random" departSpeed="10" />
    <vehicle id="E_W_156" type="standard_car" route="E_W" depart="3297" departLane="random" departSpeed="10" />
    <vehicle id="E_W_157" type="standard_car" route="E_W" depart="3324" departLane="random" departSpeed="10" />
    <vehicle id="E_W_158" type="standard_car" route="E_W" depart="3347" departLane="random" departSpeed="10" />
    <vehicle id="W_E_159" type="standard_car" route="W_E" depart="3361" departLane="random" departSpeed="10" />
    <vehicle id="W_E_160" type="standard_car" route="W_E" depart="3420" departLane="random" departSpeed="10" />
    <vehicle id="N_W_161" type="standard_car" route="N_W" depart="3581" departLane="random" departSpeed="10" />
    <vehicle id="N_W_162" type="standard_car" route="N_W" depart="3588" departLane="random" departSpeed="10" />
    <vehicle id="E_W_163" type="standard_car" route="E_W" depart="3605" departLane="random" departSpeed="10" />
    <vehicle id="E_W_164" type="standard_car" route="E_W" depart="3616" departLane="random" departSpeed="10" />
    <vehicle id="E_W_165" type="standard_car" route="E_W" depart="3636" departLane="random" departSpeed="10" />
    <vehicle id="N_E_166" type="standard_car" route="N_E" depart="3639" departLane="random" departSpeed="10" />
    <vehicle id="E_W_167" type="standard_car" route="E_W" depart="3650" departLane="random" departSpeed="10" />
    <vehicle id="N_W_168" type="standard_car" route="N_W" depart="3659" departLane="random" departSpeed="10" />
    <vehicle id="W_E_169" type="standard_car" route="W_E" depart="3664" departLane="random" departSpeed="10" />
    <vehicle id="W_E_170" type="standard_car" route="W_E" depart="3668" departLane="random" departSpeed="10" />
    <vehicle id="W_E_171" type="standard_car" route="W_E" depart="3691" departLane="random" departSpeed="10" />
    <vehicle id="E_W_172" type="standard_car" route="E_W" depart="3708" departLane="random" departSpeed="10" />
    <vehicle id="E_W_173" type="standard_car" route="E_W" depart="3725" departLane="random" departSpeed="10" />
    <vehicle id="N_W_174" type="standard_car" route="N_W" depart="3790" departLane="random" departSpeed="10" />
    <vehicle id="N_E_175" type="standard_car" route="N_E" depart="3815" departLane="random" departSpeed="10" />
    <vehicle id="N_E_176" type="standard_car" route="N_E" depart="3873" departLane="random" departSpeed="10" />
    <vehicle id="N_W_177" type="standard_car" route="N_W" depart="3910" departLane="random" departSpeed="10" />
    <vehicle id="N_E_178" type="standard_car" route="N_E" depart="3932" departLane="random" departSpeed="10" />
    <vehicle id="W_E_179" type="standard_car" route="W_E" depart="3965" departLane="random" departSpeed="10" />
    <vehicle id="W_E_180" type="standard_car" route="W_E" depart="4031" departLane="random" departSpeed="10" />
    <vehicle id="N_E_181" type="standard_car" route="N_E" depart="4036" departLane="random" departSpeed="10" />
    <vehicle id="N_W_182" type="standard_car" route="N_W" depart="4058" departLane="random" departSpeed="10" />
    <vehicle id="N_W_183" type="standard_car" route="N_W" depart="4065" departLane="random" departSpeed="10" />
    <vehicle id="W_E_184" type="standard_car" route="W_E" depart="4123" departLane="random" departSpeed="10" />
    <vehicle id="N_E_185" type="standard_car" route="N_E" depart="4229" departLane="random" departSpeed="10" />
    <vehicle id="E_W_186" type="standard_car" route="E_W" depart="4365" departLane="random" departSpeed="10" />
    <vehicle id="N_E_187" type="standard_car" route="N_E" depart="4379" departLane="random" departSpeed="10" />
    <vehicle id="W_E_188" type="standard_car" route="W_E" depart="4481" departLane="random" departSpeed="10" />
    <vehicle id="W_E_189" type="standard_car" route="W_E" depart="4651" departLane="random" departSpeed="10" />
    <vehicle id="E_W_190" type="standard_car" route="E_W" depart="4707" departLane="random" departSpeed="10" />
    <vehicle id="W_E_191" type="standard_car" route="W_E" depart="4780" departLane="random" departSpeed="10" />
    <vehicle id="W_E_192" type="standard_car" route="W_E" depart="4839" departLane="random" departSpeed="10" />
    <vehicle id="N_E_193" type="standard_car" route="N_E" depart="4948" departLane="random" departSpeed="10" />
    <vehicle id="N_W_194" type="standard_car" route="N_W" depart="4950" departLane="random" departSpeed="10" />
    <vehicle id="emergency_2" type="emergency" route="W_N" depart="5000" departLane="random" departSpeed="10" />
    <vehicle id="N_W_195" type="standard_car" route="N_W" depart="5095" departLane="random" departSpeed="10" />
    <vehicle id="N_E_196" type="standard_car" route="N_E" depart="5096" departLane="random" departSpeed="10" />
    <vehicle id="W_E_197" type="standard_car" route="W_E" depart="5108" departLane="random" departSpeed="10" />
    <vehicle id="W_E_198" type="standard_car" route="W_E" depart="5214" departLane="random" departSpeed="10" />
    <vehicle id="N_W_199" type="standard_car" route="N_W" depart="5273" departLane="random" departSpeed="10" />
</routes>
